@<TRIPOS>MOLECULE
MGO
147 154 1 0 1
SMALL
USER_CHARGES
@<TRIPOS>ATOM
       1 C1           0.0000     0.0000     0.0000 1             1 MGO        0.141081
       2 C2           0.0000     0.0000     0.0000 2             1 MGO        0.104343
       3 H1           0.0000     0.0000     0.0000 3             1 MGO        0.068516
       4 C3           0.0000     0.0000     0.0000 4             1 MGO        0.127621
       5 H2           0.0000     0.0000     0.0000 5             1 MGO        0.080661
       6 C4           0.0000     0.0000     0.0000 6             1 MGO        0.093211
       7 H3           0.0000     0.0000     0.0000 7             1 MGO        0.064468
       8 C5           0.0000     0.0000     0.0000 8             1 MGO        0.092199
       9 H4           0.0000     0.0000     0.0000 9             1 MGO        0.102926
      10 C6           0.0000     0.0000     0.0000 10            1 MGO        0.304529
      11 H5           0.0000     0.0000     0.0000 11            1 MGO        0.090782
      12 O1           0.0000     0.0000     0.0000 12            1 MGO       -0.427383
      13 O2           0.0000     0.0000     0.0000 13            1 MGO       -0.453070
      14 C7           0.0000     0.0000     0.0000 14            1 MGO        0.127621
      15 H6           0.0000     0.0000     0.0000 15            1 MGO        0.080661
      16 C8           0.0000     0.0000     0.0000 16            1 MGO        0.104343
      17 H7           0.0000     0.0000     0.0000 17            1 MGO        0.068516
      18 O3           0.0000     0.0000     0.0000 18            1 MGO       -0.427383
      19 C9           0.0000     0.0000     0.0000 19            1 MGO        0.304529
      20 H8           0.0000     0.0000     0.0000 20            1 MGO        0.090782
      21 C10          0.0000     0.0000     0.0000 21            1 MGO        0.092199
      22 H9           0.0000     0.0000     0.0000 22            1 MGO        0.102926
      23 C11          0.0000     0.0000     0.0000 23            1 MGO        0.093211
      24 H10          0.0000     0.0000     0.0000 24            1 MGO        0.064468
      25 O4           0.0000     0.0000     0.0000 25            1 MGO       -0.592567
      26 O5           0.0000     0.0000     0.0000 26            1 MGO       -0.586639
      27 O6           0.0000     0.0000     0.0000 27            1 MGO       -0.453070
      28 C12          0.0000     0.0000     0.0000 28            1 MGO        0.127621
      29 H11          0.0000     0.0000     0.0000 29            1 MGO        0.080661
      30 C13          0.0000     0.0000     0.0000 30            1 MGO        0.104343
      31 H12          0.0000     0.0000     0.0000 31            1 MGO        0.068516
      32 O7           0.0000     0.0000     0.0000 32            1 MGO       -0.427383
      33 C14          0.0000     0.0000     0.0000 33            1 MGO        0.304529
      34 H13          0.0000     0.0000     0.0000 34            1 MGO        0.090782
      35 C15          0.0000     0.0000     0.0000 35            1 MGO        0.092199
      36 H14          0.0000     0.0000     0.0000 36            1 MGO        0.102926
      37 C16          0.0000     0.0000     0.0000 37            1 MGO        0.093211
      38 H15          0.0000     0.0000     0.0000 38            1 MGO        0.064468
      39 O8           0.0000     0.0000     0.0000 39            1 MGO       -0.592567
      40 O9           0.0000     0.0000     0.0000 40            1 MGO       -0.586639
      41 O10          0.0000     0.0000     0.0000 41            1 MGO       -0.453070
      42 C17          0.0000     0.0000     0.0000 42            1 MGO        0.127621
      43 H16          0.0000     0.0000     0.0000 43            1 MGO        0.080661
      44 C18          0.0000     0.0000     0.0000 44            1 MGO        0.104343
      45 H17          0.0000     0.0000     0.0000 45            1 MGO        0.068516
      46 O11          0.0000     0.0000     0.0000 46            1 MGO       -0.427383
      47 C19          0.0000     0.0000     0.0000 47            1 MGO        0.304529
      48 H18          0.0000     0.0000     0.0000 48            1 MGO        0.090782
      49 C20          0.0000     0.0000     0.0000 49            1 MGO        0.092199
      50 H19          0.0000     0.0000     0.0000 50            1 MGO        0.102926
      51 C21          0.0000     0.0000     0.0000 51            1 MGO        0.093211
      52 H20          0.0000     0.0000     0.0000 52            1 MGO        0.064468
      53 O12          0.0000     0.0000     0.0000 53            1 MGO       -0.592567
      54 O13          0.0000     0.0000     0.0000 54            1 MGO       -0.586639
      55 O14          0.0000     0.0000     0.0000 55            1 MGO       -0.453070
      56 C22          0.0000     0.0000     0.0000 56            1 MGO        0.127621
      57 H21          0.0000     0.0000     0.0000 57            1 MGO        0.080661
      58 C23          0.0000     0.0000     0.0000 58            1 MGO        0.104343
      59 H22          0.0000     0.0000     0.0000 59            1 MGO        0.068516
      60 O15          0.0000     0.0000     0.0000 60            1 MGO       -0.427383
      61 C24          0.0000     0.0000     0.0000 61            1 MGO        0.304529
      62 H23          0.0000     0.0000     0.0000 62            1 MGO        0.090782
      63 C25          0.0000     0.0000     0.0000 63            1 MGO        0.092199
      64 H24          0.0000     0.0000     0.0000 64            1 MGO        0.102926
      65 C26          0.0000     0.0000     0.0000 65            1 MGO        0.093211
      66 H25          0.0000     0.0000     0.0000 66            1 MGO        0.064468
      67 O16          0.0000     0.0000     0.0000 67            1 MGO       -0.592567
      68 O17          0.0000     0.0000     0.0000 68            1 MGO       -0.586639
      69 O18          0.0000     0.0000     0.0000 69            1 MGO       -0.453070
      70 C27          0.0000     0.0000     0.0000 70            1 MGO        0.127621
      71 H26          0.0000     0.0000     0.0000 71            1 MGO        0.080661
      72 C28          0.0000     0.0000     0.0000 72            1 MGO        0.104343
      73 H27          0.0000     0.0000     0.0000 73            1 MGO        0.068516
      74 O19          0.0000     0.0000     0.0000 74            1 MGO       -0.427383
      75 C29          0.0000     0.0000     0.0000 75            1 MGO        0.304529
      76 H28          0.0000     0.0000     0.0000 76            1 MGO        0.090782
      77 C30          0.0000     0.0000     0.0000 77            1 MGO        0.092199
      78 H29          0.0000     0.0000     0.0000 78            1 MGO        0.102926
      79 C31          0.0000     0.0000     0.0000 79            1 MGO        0.093211
      80 H30          0.0000     0.0000     0.0000 80            1 MGO        0.064468
      81 O20          0.0000     0.0000     0.0000 81            1 MGO       -0.592567
      82 O21          0.0000     0.0000     0.0000 82            1 MGO       -0.586639
      83 O22          0.0000     0.0000     0.0000 83            1 MGO       -0.453070
      84 C32          0.0000     0.0000     0.0000 84            1 MGO        0.127621
      85 H31          0.0000     0.0000     0.0000 85            1 MGO        0.080661
      86 C33          0.0000     0.0000     0.0000 86            1 MGO        0.104343
      87 H32          0.0000     0.0000     0.0000 87            1 MGO        0.068516
      88 O23          0.0000     0.0000     0.0000 88            1 MGO       -0.427383
      89 C34          0.0000     0.0000     0.0000 89            1 MGO        0.304529
      90 H33          0.0000     0.0000     0.0000 90            1 MGO        0.090782
      91 O24          0.0000     0.0000     0.0000 91            1 MGO       -0.453070
      92 C35          0.0000     0.0000     0.0000 92            1 MGO        0.092199
      93 H34          0.0000     0.0000     0.0000 93            1 MGO        0.102926
      94 C36          0.0000     0.0000     0.0000 94            1 MGO        0.093211
      95 H35          0.0000     0.0000     0.0000 95            1 MGO        0.064468
      96 O25          0.0000     0.0000     0.0000 96            1 MGO       -0.592567
      97 O26          0.0000     0.0000     0.0000 97            1 MGO       -0.586639
      98 C37          0.0000     0.0000     0.0000 98            1 MGO        0.141081
      99 O27          0.0000     0.0000     0.0000 99            1 MGO       -0.593555
     100 C38          0.0000     0.0000     0.0000 100           1 MGO        0.141081
     101 O28          0.0000     0.0000     0.0000 101           1 MGO       -0.593555
     102 C39          0.0000     0.0000     0.0000 102           1 MGO        0.141081
     103 O29          0.0000     0.0000     0.0000 103           1 MGO       -0.593555
     104 C40          0.0000     0.0000     0.0000 104           1 MGO        0.141081
     105 O30          0.0000     0.0000     0.0000 105           1 MGO       -0.593555
     106 C41          0.0000     0.0000     0.0000 106           1 MGO        0.141081
     107 O31          0.0000     0.0000     0.0000 107           1 MGO       -0.593555
     108 C42          0.0000     0.0000     0.0000 108           1 MGO        0.141081
     109 O32          0.0000     0.0000     0.0000 109           1 MGO       -0.593555
     110 O33          0.0000     0.0000     0.0000 110           1 MGO       -0.586639
     111 O34          0.0000     0.0000     0.0000 111           1 MGO       -0.592567
     112 O35          0.0000     0.0000     0.0000 112           1 MGO       -0.593555
     113 H36          0.0000     0.0000     0.0000 113           1 MGO        0.057384
     114 H37          0.0000     0.0000     0.0000 114           1 MGO        0.057384
     115 H38          0.0000     0.0000     0.0000 115           1 MGO        0.421017
     116 H39          0.0000     0.0000     0.0000 116           1 MGO        0.425065
     117 H40          0.0000     0.0000     0.0000 117           1 MGO        0.421017
     118 H41          0.0000     0.0000     0.0000 118           1 MGO        0.425065
     119 H42          0.0000     0.0000     0.0000 119           1 MGO        0.421017
     120 H43          0.0000     0.0000     0.0000 120           1 MGO        0.425065
     121 H44          0.0000     0.0000     0.0000 121           1 MGO        0.421017
     122 H45          0.0000     0.0000     0.0000 122           1 MGO        0.425065
     123 H46          0.0000     0.0000     0.0000 123           1 MGO        0.421017
     124 H47          0.0000     0.0000     0.0000 124           1 MGO        0.425065
     125 H48          0.0000     0.0000     0.0000 125           1 MGO        0.421017
     126 H49          0.0000     0.0000     0.0000 126           1 MGO        0.425065
     127 H50          0.0000     0.0000     0.0000 127           1 MGO        0.057384
     128 H51          0.0000     0.0000     0.0000 128           1 MGO        0.057384
     129 H52          0.0000     0.0000     0.0000 129           1 MGO        0.422027
     130 H53          0.0000     0.0000     0.0000 130           1 MGO        0.057384
     131 H54          0.0000     0.0000     0.0000 131           1 MGO        0.057384
     132 H55          0.0000     0.0000     0.0000 132           1 MGO        0.422027
     133 H56          0.0000     0.0000     0.0000 133           1 MGO        0.057384
     134 H57          0.0000     0.0000     0.0000 134           1 MGO        0.057384
     135 H58          0.0000     0.0000     0.0000 135           1 MGO        0.422027
     136 H59          0.0000     0.0000     0.0000 136           1 MGO        0.057384
     137 H60          0.0000     0.0000     0.0000 137           1 MGO        0.057384
     138 H61          0.0000     0.0000     0.0000 138           1 MGO        0.422027
     139 H62          0.0000     0.0000     0.0000 139           1 MGO        0.057384
     140 H63          0.0000     0.0000     0.0000 140           1 MGO        0.057384
     141 H64          0.0000     0.0000     0.0000 141           1 MGO        0.422027
     142 H65          0.0000     0.0000     0.0000 142           1 MGO        0.057384
     143 H66          0.0000     0.0000     0.0000 143           1 MGO        0.057384
     144 H67          0.0000     0.0000     0.0000 144           1 MGO        0.422027
     145 H68          0.0000     0.0000     0.0000 145           1 MGO        0.425065
     146 H69          0.0000     0.0000     0.0000 146           1 MGO        0.421017
     147 H70          0.0000     0.0000     0.0000 147           1 MGO        0.422027
@<TRIPOS>BOND
       1        1        2 1
       2        2        3 1
       3        2       12 1
       4        2        4 1
       5        4        5 1
       6        4       91 1
       7        4        6 1
       8        6        7 1
       9        6        8 1
      10        8        9 1
      11        8       10 1
      12       10       11 1
      13       10       12 1
      14       10       13 1
      15       13       14 1
      16       14       15 1
      17       14       23 1
      18       14       16 1
      19       16       17 1
      20       16       18 1
      21       18       19 1
      22       19       20 1
      23       19       21 1
      24       21       22 1
      25       21       23 1
      26       23       24 1
      27       23       25 1
      28       21       26 1
      29       19       27 1
      30       27       28 1
      31       28       29 1
      32       28       37 1
      33       28       30 1
      34       30       31 1
      35       30       32 1
      36       32       33 1
      37       33       34 1
      38       33       35 1
      39       35       36 1
      40       35       37 1
      41       37       38 1
      42       37       39 1
      43       35       40 1
      44       33       41 1
      45       41       42 1
      46       42       43 1
      47       42       51 1
      48       42       44 1
      49       44       45 1
      50       44       46 1
      51       46       47 1
      52       47       48 1
      53       47       49 1
      54       49       50 1
      55       49       51 1
      56       51       52 1
      57       51       53 1
      58       49       54 1
      59       47       55 1
      60       55       56 1
      61       56       57 1
      62       56       65 1
      63       56       58 1
      64       58       59 1
      65       58       60 1
      66       60       61 1
      67       61       62 1
      68       61       63 1
      69       63       64 1
      70       63       65 1
      71       65       66 1
      72       65       67 1
      73       63       68 1
      74       61       69 1
      75       69       70 1
      76       70       71 1
      77       70       79 1
      78       70       72 1
      79       72       73 1
      80       72       74 1
      81       74       75 1
      82       75       76 1
      83       75       77 1
      84       77       78 1
      85       77       79 1
      86       79       80 1
      87       79       81 1
      88       77       82 1
      89       75       83 1
      90       83       84 1
      91       84       85 1
      92       84       94 1
      93       84       86 1
      94       86       87 1
      95       86       88 1
      96       88       89 1
      97       89       90 1
      98       89       91 1
      99       89       92 1
     100       92       93 1
     101       92       94 1
     102       94       95 1
     103       94       96 1
     104       92       97 1
     105       86       98 1
     106       98       99 1
     107       72      100 1
     108      100      101 1
     109       58      102 1
     110      102      103 1
     111       44      104 1
     112      104      105 1
     113       30      106 1
     114      106      107 1
     115       16      108 1
     116      108      109 1
     117        8      110 1
     118        6      111 1
     119        1      112 1
     120        1      113 1
     121        1      114 1
     122       25      115 1
     123       26      116 1
     124       39      117 1
     125       40      118 1
     126       53      119 1
     127       54      120 1
     128       67      121 1
     129       68      122 1
     130       81      123 1
     131       82      124 1
     132       96      125 1
     133       97      126 1
     134       98      127 1
     135       98      128 1
     136       99      129 1
     137      100      130 1
     138      100      131 1
     139      101      132 1
     140      102      133 1
     141      102      134 1
     142      103      135 1
     143      104      136 1
     144      104      137 1
     145      105      138 1
     146      106      139 1
     147      106      140 1
     148      107      141 1
     149      108      142 1
     150      108      143 1
     151      109      144 1
     152      110      145 1
     153      111      146 1
     154      112      147 1
@<TRIPOS>SUBSTRUCTURE
       1 MGO             1 RESIDUE    0 **** ROOT      0
