@<TRIPOS>MOLECULE
BEN
14 14 1 0 1
SMALL
USER_CHARGES
@<TRIPOS>ATOM
       1 O1           0.0000     0.0000     0.0000 1             1 BEN       -0.833675
       2 C7           0.0000     0.0000     0.0000 2             1 BEN        0.906879
       3 O2           0.0000     0.0000     0.0000 3             1 BEN       -0.833677
       4 C4           0.0000     0.0000     0.0000 4             1 BEN       -0.123507
       5 C3           0.0000     0.0000     0.0000 5             1 BEN       -0.108918
       6 C2           0.0000     0.0000     0.0000 6             1 BEN       -0.165876
       7 C1           0.0000     0.0000     0.0000 7             1 BEN       -0.161879
       8 C6           0.0000     0.0000     0.0000 8             1 BEN       -0.165876
       9 C5           0.0000     0.0000     0.0000 9             1 BEN       -0.108918
      10 H3           0.0000     0.0000     0.0000 10            1 BEN        0.148111
      11 H2           0.0000     0.0000     0.0000 11            1 BEN        0.101076
      12 H1           0.0000     0.0000     0.0000 12            1 BEN        0.097073
      13 H5           0.0000     0.0000     0.0000 13            1 BEN        0.101076
      14 H4           0.0000     0.0000     0.0000 14            1 BEN        0.148111
@<TRIPOS>BOND
       1        1        2 1
       2        2        3 1
       3        2        4 1
       4        4        9 1
       5        4        5 1
       6        5        6 1
       7        6        7 1
       8        7        8 1
       9        8        9 1
      10        5       10 1
      11        6       11 1
      12        7       12 1
      13        8       13 1
      14        9       14 1
@<TRIPOS>SUBSTRUCTURE
       1 BEN             1 RESIDUE    0 **** ROOT      0
