@<TRIPOS>MOLECULE
ben
   14    14     0     0     0
SMALL
USER_CHARGES

@<TRIPOS>ATOM
      1 O1         20.2608   20.8861   37.6267 O.co2     1 <0>        -0.8337
      2 C1         19.6968   19.9941   37.0147 C.2       1 <0>         0.9069
      3 O2         19.1328   19.1021   37.6267 O.co2     1 <0>        -0.8337
      4 C2         19.6968   19.9941   35.4977 C.ar      1 <0>        -0.1235
      5 C3         19.0528   18.9751   34.7797 C.ar      1 <0>        -0.1089
      6 C4         19.0538   18.9761   33.3857 C.ar      1 <0>        -0.1659
      7 C5         19.6968   19.9941   32.6877 C.ar      1 <0>        -0.1619
      8 C6         20.3398   21.0121   33.3857 C.ar      1 <0>        -0.1659
      9 C7         20.3408   21.0131   34.7797 C.ar      1 <0>        -0.1089
     10 H1         18.5448   18.1711   35.3087 H         1 <0>         0.1481
     11 H2         18.5488   18.1781   32.8417 H         1 <0>         0.1011
     12 H3         19.6968   19.9941   31.5977 H         1 <0>         0.0971
     13 H4         20.8448   21.8101   32.8417 H         1 <0>         0.1011
     14 H5         20.8488   21.8171   35.3087 H         1 <0>         0.1481
@<TRIPOS>BOND
     1    1    2 1
     2    2    3 2
     3    2    4 1
     4    4    9 ar
     5    4    5 ar
     6    5    6 ar
     7    6    7 ar
     8    7    8 ar
     9    8    9 ar
    10    5   10 1
    11    6   11 1
    12    7   12 1
    13    8   13 1
    14    9   14 1
