@<TRIPOS>MOLECULE
*****
  147   154     0     0     0
SMALL
USER_CHARGES

@<TRIPOS>ATOM
      1 C1         -3.3465    4.7547    0.4312 C.3       1 <0>         0.1012
      2 C2          0.8270    6.5135   -0.9435 C.3       1 <0>         0.1020
      3 C3          2.2917    1.4192   -0.8135 C.3       1 <0>         0.1020
      4 C4         -4.2259    0.2977    0.4701 C.3       1 <0>         0.1020
      5 C5          4.9118   -2.5786    0.7069 C.3       1 <0>         0.1020
      6 C6          2.5234   -6.4998    0.1075 C.3       1 <0>         0.1020
      7 C7         -1.9860   -4.1929    1.1261 C.3       1 <0>         0.1020
      8 C8         -4.5377    4.4823   -0.5056 C.3       1 <0>         0.1044
      9 C9         -0.1127    6.1764   -2.1159 C.3       1 <0>         0.1044
     10 C10         2.1702    2.1974    0.5103 C.3       1 <0>         0.1044
     11 C11        -5.2635   -0.5145    1.2638 C.3       1 <0>         0.1044
     12 C12         5.9440   -1.7673   -0.0959 C.3       1 <0>         0.1044
     13 C13         2.5807   -5.7159   -1.2090 C.3       1 <0>         0.1044
     14 C14        -2.1593   -5.6480    1.5773 C.3       1 <0>         0.1044
     15 C15        -5.6632    3.7596    0.2358 C.3       1 <0>         0.0999
     16 C16        -1.4768    6.8368   -1.9333 C.3       1 <0>         0.0999
     17 C17         2.5143    3.6808    0.3558 C.3       1 <0>         0.0999
     18 C18        -4.9503   -2.0148    1.2703 C.3       1 <0>         0.0999
     19 C19         5.2861   -0.6850   -0.9572 C.3       1 <0>         0.0999
     20 C20         4.0400   -5.4053   -1.5556 C.3       1 <0>         0.0999
     21 C21        -0.8453   -6.4252    1.6665 C.3       1 <0>         0.0999
     22 C22        -2.9746    3.4763    1.2077 C.3       1 <0>         0.1282
     23 C23         0.1407    6.5159    0.4395 C.3       1 <0>         0.1282
     24 C24         1.7882    2.2016   -2.0509 C.3       1 <0>         0.1282
     25 C25        -3.7470   -0.4989   -0.7559 C.3       1 <0>         0.1282
     26 C26         3.8569   -1.6869    1.3808 C.3       1 <0>         0.1282
     27 C27         3.3292   -5.7996    1.2145 C.3       1 <0>         0.1282
     28 C28        -1.1393   -4.1161   -0.1660 C.3       1 <0>         0.1282
     29 C29        -5.1475    2.5068    0.9460 C.3       1 <0>         0.3176
     30 C30        -2.0388    6.5507   -0.5399 C.3       1 <0>         0.3176
     31 C31         1.7425    4.2659   -0.8239 C.3       1 <0>         0.3176
     32 C32         4.2469    0.1236   -0.1714 C.3       1 <0>         0.3176
     33 C33        -3.5040   -2.3013    0.8477 C.3       1 <0>         0.3176
     34 C34         4.7505   -4.7202   -0.3847 C.3       1 <0>         0.3176
     35 C35         0.2548   -5.8237    0.7832 C.3       1 <0>         0.3176
     36 C36        -1.9704    3.7520    2.3214 C.3       1 <0>         0.1254
     37 C37         0.9847    7.2612    1.4716 C.3       1 <0>         0.1254
     38 C38         0.2915    2.0334   -2.3025 C.3       1 <0>         0.1254
     39 C39        -2.6339    0.2290   -1.5024 C.3       1 <0>         0.1254
     40 C40         4.3321   -0.9924    2.6540 C.3       1 <0>         0.1254
     41 C41         3.4089   -6.6478    2.4798 C.3       1 <0>         0.1254
     42 C42        -0.2082   -2.9000   -0.1863 C.3       1 <0>         0.1254
     43 O1         -2.2149    5.1370   -0.3640 O.3       1 <0>        -0.4088
     44 O2          1.9980    5.6727   -0.9272 O.3       1 <0>        -0.4088
     45 O3         -4.7611    1.5330   -0.0290 O.3       1 <0>        -0.4088
     46 O4          3.6558    1.0634   -1.0888 O.3       1 <0>        -0.4088
     47 O5          4.1732   -3.4257   -0.1869 O.3       1 <0>        -0.4088
     48 O6          1.2021   -6.8587    0.5103 O.3       1 <0>        -0.4088
     49 O7         -3.3263   -3.7184    0.9117 O.3       1 <0>        -0.4088
     50 O8         -4.1100    2.8864    1.8477 O.3       1 <0>        -0.4191
     51 O9         -1.1530    7.1244    0.4270 O.3       1 <0>        -0.4191
     52 O10         2.1380    3.5897   -2.0184 O.3       1 <0>        -0.4191
     53 O11         3.3056   -0.7599    0.4424 O.3       1 <0>        -0.4191
     54 O12        -3.2601   -1.8100   -0.4661 O.3       1 <0>        -0.4191
     55 O13         4.6732   -5.5536    0.7781 O.3       1 <0>        -0.4191
     56 O14        -0.3554   -5.3010   -0.3972 O.3       1 <0>        -0.4191
     57 O15        -5.0379    5.7285   -0.9909 O.3       1 <0>        -0.5890
     58 O16         0.4988    6.6586   -3.3154 O.3       1 <0>        -0.5890
     59 O17         0.8260    2.0695    0.9735 O.3       1 <0>        -0.5890
     60 O18        -5.2297   -0.0520    2.6179 O.3       1 <0>        -0.5890
     61 O19         6.8664   -1.1408    0.7900 O.3       1 <0>        -0.5890
     62 O20         2.0086   -6.5250   -2.2357 O.3       1 <0>        -0.5890
     63 O21        -2.8006   -5.6815    2.8552 O.3       1 <0>        -0.5890
     64 O22        -6.6967    3.3850   -0.6694 O.3       1 <0>        -0.5744
     65 O23        -2.3938    6.3448   -2.9060 O.3       1 <0>        -0.5744
     66 O24         3.9156    3.8407    0.1526 O.3       1 <0>        -0.5744
     67 O25        -5.8465   -2.6808    0.3753 O.3       1 <0>        -0.5744
     68 O26         4.6504   -1.3018   -2.0794 O.3       1 <0>        -0.5744
     69 O27         4.1106   -4.5595   -2.6988 O.3       1 <0>        -0.5744
     70 O28        -1.1214   -7.7655    1.2372 O.3       1 <0>        -0.5744
     71 O29        -1.6914    2.5348    2.9894 O.3       1 <0>        -0.5919
     72 O30         0.5696    6.8612    2.7642 O.3       1 <0>        -0.5919
     73 O31        -0.0606    2.7946   -3.4428 O.3       1 <0>        -0.5919
     74 O32        -2.5543   -0.2937   -2.8161 O.3       1 <0>        -0.5919
     75 O33         4.7005   -1.9828    3.5962 O.3       1 <0>        -0.5919
     76 O34         4.1711   -5.9466    3.4454 O.3       1 <0>        -0.5919
     77 O35         0.1709   -2.6527   -1.5259 O.3       1 <0>        -0.5919
     78 H1         -3.6023    5.5546    1.1394 H         1 <0>         0.0746
     79 H2          1.2097    7.5267   -1.1270 H         1 <0>         0.0746
     80 H3          1.7086    0.4907   -0.7658 H         1 <0>         0.0746
     81 H4         -3.3637    0.5223    1.1114 H         1 <0>         0.0746
     82 H5          5.4055   -3.1838    1.4776 H         1 <0>         0.0746
     83 H6          3.0124   -7.4645   -0.0893 H         1 <0>         0.0746
     84 H7         -1.5346   -3.6164    1.9438 H         1 <0>         0.0746
     85 H8         -4.2125    3.9153   -1.3857 H         1 <0>         0.0892
     86 H9         -0.2376    5.1015   -2.2629 H         1 <0>         0.0892
     87 H10         2.8166    1.7608    1.2773 H         1 <0>         0.0892
     88 H11        -6.2730   -0.3177    0.8817 H         1 <0>         0.0892
     89 H12         6.5164   -2.4367   -0.7477 H         1 <0>         0.0892
     90 H13         1.9926   -4.7958   -1.1607 H         1 <0>         0.0892
     91 H14        -2.8554   -6.1545    0.8852 H         1 <0>         0.0892
     92 H15        -6.1031    4.4449    0.9722 H         1 <0>         0.0654
     93 H16        -1.3835    7.9193   -2.0847 H         1 <0>         0.0654
     94 H17         2.2523    4.2301    1.2741 H         1 <0>         0.0654
     95 H18        -5.1337   -2.4535    2.2712 H         1 <0>         0.0654
     96 H19         6.0469    0.0022   -1.3616 H         1 <0>         0.0654
     97 H20         4.5581   -6.3401   -1.8055 H         1 <0>         0.0654
     98 H21        -0.4812   -6.5103    2.6971 H         1 <0>         0.0654
     99 H22        -2.5178    2.7449    0.5293 H         1 <0>         0.0972
    100 H23         0.0305    5.4983    0.8132 H         1 <0>         0.0972
    101 H24         2.2967    1.8044   -2.9386 H         1 <0>         0.0972
    102 H25        -4.5831   -0.6160   -1.4550 H         1 <0>         0.0972
    103 H26         3.0125   -2.3240    1.6719 H         1 <0>         0.0972
    104 H27         2.8726   -4.8433    1.4902 H         1 <0>         0.0972
    105 H28        -1.8048   -4.0327   -1.0330 H         1 <0>         0.0972
    106 H29        -5.9745    2.0936    1.5320 H         1 <0>         0.0680
    107 H30        -3.0013    7.0636   -0.4441 H         1 <0>         0.0680
    108 H31         0.6766    4.0953   -0.6545 H         1 <0>         0.0680
    109 H32         4.7473    0.7192    0.5987 H         1 <0>         0.0680
    110 H33        -2.8141   -1.8159    1.5494 H         1 <0>         0.0680
    111 H34         5.8088   -4.5992   -0.6407 H         1 <0>         0.0680
    112 H35         0.7403   -5.0147    1.3362 H         1 <0>         0.0680
    113 H36        -2.3886    4.4649    3.0325 H         1 <0>         0.0430
    114 H37        -1.0472    4.1514    1.9009 H         1 <0>         0.0430
    115 H38         0.8404    8.3354    1.3618 H         1 <0>         0.0430
    116 H39         2.0373    7.0143    1.3373 H         1 <0>         0.0430
    117 H40        -0.2716    2.3915   -1.4412 H         1 <0>         0.0430
    118 H41         0.0615    0.9840   -2.4835 H         1 <0>         0.0430
    119 H42        -1.6813    0.0737   -0.9951 H         1 <0>         0.0430
    120 H43        -2.8537    1.2958   -1.5523 H         1 <0>         0.0430
    121 H44         3.5284   -0.3830    3.0668 H         1 <0>         0.0430
    122 H45         5.1953   -0.3643    2.4347 H         1 <0>         0.0430
    123 H46         3.8935   -7.5993    2.2601 H         1 <0>         0.0430
    124 H47         2.4077   -6.8269    2.8719 H         1 <0>         0.0430
    125 H48         0.6775   -3.1072    0.4106 H         1 <0>         0.0430
    126 H49        -0.7306   -2.0322    0.2107 H         1 <0>         0.0430
    127 H50        -5.3122    6.2350   -0.2118 H         1 <0>         0.4068
    128 H51         0.6039    7.6144   -3.2011 H         1 <0>         0.4068
    129 H52         0.6689    1.1216    1.0998 H         1 <0>         0.4068
    130 H53        -5.8880   -0.5746    3.0981 H         1 <0>         0.4068
    131 H54         7.3012   -1.8522    1.2859 H         1 <0>         0.4068
    132 H55         2.5433   -7.3322   -2.2788 H         1 <0>         0.4068
    133 H56        -2.2216   -5.1970    3.4615 H         1 <0>         0.4068
    134 H57        -7.3760    2.9345   -0.1435 H         1 <0>         0.4111
    135 H58        -3.2374    6.7952   -2.7439 H         1 <0>         0.4111
    136 H59         4.3527    3.4688    0.9344 H         1 <0>         0.4111
    137 H60        -6.7385   -2.5059    0.7076 H         1 <0>         0.4111
    138 H61         5.3484   -1.7620   -2.5683 H         1 <0>         0.4111
    139 H62         5.0524   -4.3995   -2.8676 H         1 <0>         0.4111
    140 H63        -1.7919   -8.1086    1.8444 H         1 <0>         0.4111
    141 H64        -1.0509    2.7358    3.6928 H         1 <0>         0.4076
    142 H65         1.1185    7.3465    3.4039 H         1 <0>         0.4076
    143 H66        -1.0152    2.6731   -3.5841 H         1 <0>         0.4076
    144 H67        -1.8401    0.1846   -3.2706 H         1 <0>         0.4076
    145 H68         4.9991   -1.5185    4.3968 H         1 <0>         0.4076
    146 H69         4.2080   -6.5051    4.2405 H         1 <0>         0.4076
    147 H70         0.7606   -1.8788   -1.5196 H         1 <0>         0.4076
@<TRIPOS>BOND
     1    1    8 1
     2    1   22 1
     3    1   43 1
     4    2    9 1
     5    2   23 1
     6    2   44 1
     7    3   10 1
     8    3   24 1
     9    3   46 1
    10    4   11 1
    11    4   25 1
    12    4   45 1
    13    5   12 1
    14    5   26 1
    15    5   47 1
    16    6   13 1
    17    6   27 1
    18    6   48 1
    19    7   14 1
    20    7   28 1
    21    7   49 1
    22    8   15 1
    23    8   57 1
    24    9   16 1
    25    9   58 1
    26   10   17 1
    27   10   59 1
    28   11   18 1
    29   11   60 1
    30   12   19 1
    31   12   61 1
    32   13   20 1
    33   13   62 1
    34   14   21 1
    35   14   63 1
    36   15   29 1
    37   15   64 1
    38   16   30 1
    39   16   65 1
    40   17   31 1
    41   17   66 1
    42   18   33 1
    43   18   67 1
    44   19   32 1
    45   19   68 1
    46   20   34 1
    47   20   69 1
    48   21   35 1
    49   21   70 1
    50   22   36 1
    51   22   50 1
    52   23   37 1
    53   23   51 1
    54   24   38 1
    55   24   52 1
    56   25   39 1
    57   25   54 1
    58   26   40 1
    59   26   53 1
    60   27   41 1
    61   27   55 1
    62   28   42 1
    63   28   56 1
    64   29   45 1
    65   29   50 1
    66   30   43 1
    67   30   51 1
    68   31   44 1
    69   31   52 1
    70   32   46 1
    71   32   53 1
    72   33   49 1
    73   33   54 1
    74   34   47 1
    75   34   55 1
    76   35   48 1
    77   35   56 1
    78   36   71 1
    79   37   72 1
    80   38   73 1
    81   39   74 1
    82   40   75 1
    83   41   76 1
    84   42   77 1
    85    1   78 1
    86    2   79 1
    87    3   80 1
    88    4   81 1
    89    5   82 1
    90    6   83 1
    91    7   84 1
    92    8   85 1
    93    9   86 1
    94   10   87 1
    95   11   88 1
    96   12   89 1
    97   13   90 1
    98   14   91 1
    99   15   92 1
   100   16   93 1
   101   17   94 1
   102   18   95 1
   103   19   96 1
   104   20   97 1
   105   21   98 1
   106   22   99 1
   107   23  100 1
   108   24  101 1
   109   25  102 1
   110   26  103 1
   111   27  104 1
   112   28  105 1
   113   29  106 1
   114   30  107 1
   115   31  108 1
   116   32  109 1
   117   33  110 1
   118   34  111 1
   119   35  112 1
   120   36  113 1
   121   36  114 1
   122   37  115 1
   123   37  116 1
   124   38  117 1
   125   38  118 1
   126   39  119 1
   127   39  120 1
   128   40  121 1
   129   40  122 1
   130   41  123 1
   131   41  124 1
   132   42  125 1
   133   42  126 1
   134   57  127 1
   135   58  128 1
   136   59  129 1
   137   60  130 1
   138   61  131 1
   139   62  132 1
   140   63  133 1
   141   64  134 1
   142   65  135 1
   143   66  136 1
   144   67  137 1
   145   68  138 1
   146   69  139 1
   147   70  140 1
   148   71  141 1
   149   72  142 1
   150   73  143 1
   151   74  144 1
   152   75  145 1
   153   76  146 1
   154   77  147 1
@<TRIPOS>MOLECULE
*****
  147   154     0     0     0
SMALL
USER_CHARGES

@<TRIPOS>ATOM
      1 C1         -3.3465    4.7547    0.4312 C.3       1 <0>         0.1012
      2 C2          0.8270    6.5135   -0.9435 C.3       1 <0>         0.1020
      3 C3          2.2917    1.4192   -0.8135 C.3       1 <0>         0.1020
      4 C4         -4.2259    0.2977    0.4701 C.3       1 <0>         0.1020
      5 C5          4.9118   -2.5786    0.7069 C.3       1 <0>         0.1020
      6 C6          2.5234   -6.4998    0.1075 C.3       1 <0>         0.1020
      7 C7         -1.9860   -4.1929    1.1261 C.3       1 <0>         0.1020
      8 C8         -4.5377    4.4823   -0.5056 C.3       1 <0>         0.1044
      9 C9         -0.1127    6.1764   -2.1159 C.3       1 <0>         0.1044
     10 C10         2.1702    2.1974    0.5103 C.3       1 <0>         0.1044
     11 C11        -5.2635   -0.5145    1.2638 C.3       1 <0>         0.1044
     12 C12         5.9440   -1.7673   -0.0959 C.3       1 <0>         0.1044
     13 C13         2.5807   -5.7159   -1.2090 C.3       1 <0>         0.1044
     14 C14        -2.1593   -5.6480    1.5773 C.3       1 <0>         0.1044
     15 C15        -5.6632    3.7596    0.2358 C.3       1 <0>         0.0999
     16 C16        -1.4768    6.8368   -1.9333 C.3       1 <0>         0.0999
     17 C17         2.5143    3.6808    0.3558 C.3       1 <0>         0.0999
     18 C18        -4.9503   -2.0148    1.2703 C.3       1 <0>         0.0999
     19 C19         5.2861   -0.6850   -0.9572 C.3       1 <0>         0.0999
     20 C20         4.0400   -5.4053   -1.5556 C.3       1 <0>         0.0999
     21 C21        -0.8453   -6.4252    1.6665 C.3       1 <0>         0.0999
     22 C22        -2.9746    3.4763    1.2077 C.3       1 <0>         0.1282
     23 C23         0.1407    6.5159    0.4395 C.3       1 <0>         0.1282
     24 C24         1.7882    2.2016   -2.0509 C.3       1 <0>         0.1282
     25 C25        -3.7470   -0.4989   -0.7559 C.3       1 <0>         0.1282
     26 C26         3.8569   -1.6869    1.3808 C.3       1 <0>         0.1282
     27 C27         3.3292   -5.7996    1.2145 C.3       1 <0>         0.1282
     28 C28        -1.1393   -4.1161   -0.1660 C.3       1 <0>         0.1282
     29 C29        -5.1475    2.5068    0.9460 C.3       1 <0>         0.3176
     30 C30        -2.0388    6.5507   -0.5399 C.3       1 <0>         0.3176
     31 C31         1.7425    4.2659   -0.8239 C.3       1 <0>         0.3176
     32 C32         4.2469    0.1236   -0.1714 C.3       1 <0>         0.3176
     33 C33        -3.5040   -2.3013    0.8477 C.3       1 <0>         0.3176
     34 C34         4.7505   -4.7202   -0.3847 C.3       1 <0>         0.3176
     35 C35         0.2548   -5.8237    0.7832 C.3       1 <0>         0.3176
     36 C36        -1.9704    3.7520    2.3214 C.3       1 <0>         0.1254
     37 C37         0.9847    7.2612    1.4716 C.3       1 <0>         0.1254
     38 C38         0.2915    2.0334   -2.3025 C.3       1 <0>         0.1254
     39 C39        -2.6339    0.2290   -1.5024 C.3       1 <0>         0.1254
     40 C40         4.3321   -0.9924    2.6540 C.3       1 <0>         0.1254
     41 C41         3.4089   -6.6478    2.4798 C.3       1 <0>         0.1254
     42 C42        -0.2082   -2.9000   -0.1863 C.3       1 <0>         0.1254
     43 O1         -2.2149    5.1370   -0.3640 O.3       1 <0>        -0.4088
     44 O2          1.9980    5.6727   -0.9272 O.3       1 <0>        -0.4088
     45 O3         -4.7611    1.5330   -0.0290 O.3       1 <0>        -0.4088
     46 O4          3.6558    1.0634   -1.0888 O.3       1 <0>        -0.4088
     47 O5          4.1732   -3.4257   -0.1869 O.3       1 <0>        -0.4088
     48 O6          1.2021   -6.8587    0.5103 O.3       1 <0>        -0.4088
     49 O7         -3.3263   -3.7184    0.9117 O.3       1 <0>        -0.4088
     50 O8         -4.1100    2.8864    1.8477 O.3       1 <0>        -0.4191
     51 O9         -1.1530    7.1244    0.4270 O.3       1 <0>        -0.4191
     52 O10         2.1380    3.5897   -2.0184 O.3       1 <0>        -0.4191
     53 O11         3.3056   -0.7599    0.4424 O.3       1 <0>        -0.4191
     54 O12        -3.2601   -1.8100   -0.4661 O.3       1 <0>        -0.4191
     55 O13         4.6732   -5.5536    0.7781 O.3       1 <0>        -0.4191
     56 O14        -0.3554   -5.3010   -0.3972 O.3       1 <0>        -0.4191
     57 O15        -5.0379    5.7285   -0.9909 O.3       1 <0>        -0.5890
     58 O16         0.4988    6.6586   -3.3154 O.3       1 <0>        -0.5890
     59 O17         0.8260    2.0695    0.9735 O.3       1 <0>        -0.5890
     60 O18        -5.2297   -0.0520    2.6179 O.3       1 <0>        -0.5890
     61 O19         6.8664   -1.1408    0.7900 O.3       1 <0>        -0.5890
     62 O20         2.0086   -6.5250   -2.2357 O.3       1 <0>        -0.5890
     63 O21        -2.8006   -5.6815    2.8552 O.3       1 <0>        -0.5890
     64 O22        -6.6967    3.3850   -0.6694 O.3       1 <0>        -0.5744
     65 O23        -2.3938    6.3448   -2.9060 O.3       1 <0>        -0.5744
     66 O24         3.9156    3.8407    0.1526 O.3       1 <0>        -0.5744
     67 O25        -5.8465   -2.6808    0.3753 O.3       1 <0>        -0.5744
     68 O26         4.6504   -1.3018   -2.0794 O.3       1 <0>        -0.5744
     69 O27         4.1106   -4.5595   -2.6988 O.3       1 <0>        -0.5744
     70 O28        -1.1214   -7.7655    1.2372 O.3       1 <0>        -0.5744
     71 O29        -2.5384    4.6876    3.2201 O.3       1 <0>        -0.5919
     72 O30         1.1617    8.5938    1.0289 O.3       1 <0>        -0.5919
     73 O31        -0.0606    2.7946   -3.4428 O.3       1 <0>        -0.5919
     74 O32        -2.5543   -0.2937   -2.8161 O.3       1 <0>        -0.5919
     75 O33         3.2714   -0.2021    3.1584 O.3       1 <0>        -0.5919
     76 O34         4.0319   -7.8783    2.1592 O.3       1 <0>        -0.5919
     77 O35         0.1709   -2.6527   -1.5259 O.3       1 <0>        -0.5919
     78 H1         -3.6023    5.5546    1.1394 H         1 <0>         0.0746
     79 H2          1.2097    7.5267   -1.1270 H         1 <0>         0.0746
     80 H3          1.7086    0.4907   -0.7658 H         1 <0>         0.0746
     81 H4         -3.3637    0.5223    1.1114 H         1 <0>         0.0746
     82 H5          5.4055   -3.1838    1.4776 H         1 <0>         0.0746
     83 H6          3.0124   -7.4645   -0.0893 H         1 <0>         0.0746
     84 H7         -1.5346   -3.6164    1.9438 H         1 <0>         0.0746
     85 H8         -4.2125    3.9153   -1.3857 H         1 <0>         0.0892
     86 H9         -0.2376    5.1015   -2.2629 H         1 <0>         0.0892
     87 H10         2.8166    1.7608    1.2773 H         1 <0>         0.0892
     88 H11        -6.2730   -0.3177    0.8817 H         1 <0>         0.0892
     89 H12         6.5164   -2.4367   -0.7477 H         1 <0>         0.0892
     90 H13         1.9926   -4.7958   -1.1607 H         1 <0>         0.0892
     91 H14        -2.8554   -6.1545    0.8852 H         1 <0>         0.0892
     92 H15        -6.1031    4.4449    0.9722 H         1 <0>         0.0654
     93 H16        -1.3835    7.9193   -2.0847 H         1 <0>         0.0654
     94 H17         2.2523    4.2301    1.2741 H         1 <0>         0.0654
     95 H18        -5.1337   -2.4535    2.2712 H         1 <0>         0.0654
     96 H19         6.0469    0.0022   -1.3616 H         1 <0>         0.0654
     97 H20         4.5581   -6.3401   -1.8055 H         1 <0>         0.0654
     98 H21        -0.4812   -6.5103    2.6971 H         1 <0>         0.0654
     99 H22        -2.5178    2.7449    0.5293 H         1 <0>         0.0972
    100 H23         0.0305    5.4983    0.8132 H         1 <0>         0.0972
    101 H24         2.2967    1.8044   -2.9386 H         1 <0>         0.0972
    102 H25        -4.5831   -0.6160   -1.4550 H         1 <0>         0.0972
    103 H26         3.0125   -2.3240    1.6719 H         1 <0>         0.0972
    104 H27         2.8726   -4.8433    1.4902 H         1 <0>         0.0972
    105 H28        -1.8048   -4.0327   -1.0330 H         1 <0>         0.0972
    106 H29        -5.9745    2.0936    1.5320 H         1 <0>         0.0680
    107 H30        -3.0013    7.0636   -0.4441 H         1 <0>         0.0680
    108 H31         0.6766    4.0953   -0.6545 H         1 <0>         0.0680
    109 H32         4.7473    0.7192    0.5987 H         1 <0>         0.0680
    110 H33        -2.8141   -1.8159    1.5494 H         1 <0>         0.0680
    111 H34         5.8088   -4.5992   -0.6407 H         1 <0>         0.0680
    112 H35         0.7403   -5.0147    1.3362 H         1 <0>         0.0680
    113 H36        -1.0533    4.1668    1.9023 H         1 <0>         0.0430
    114 H37        -1.7449    2.8296    2.8572 H         1 <0>         0.0430
    115 H38         1.9576    6.7810    1.5706 H         1 <0>         0.0430
    116 H39         0.4748    7.2646    2.4343 H         1 <0>         0.0430
    117 H40        -0.2716    2.3915   -1.4412 H         1 <0>         0.0430
    118 H41         0.0615    0.9840   -2.4835 H         1 <0>         0.0430
    119 H42        -1.6813    0.0737   -0.9951 H         1 <0>         0.0430
    120 H43        -2.8537    1.2958   -1.5523 H         1 <0>         0.0430
    121 H44         5.1851   -0.3517    2.4313 H         1 <0>         0.0430
    122 H45         4.6144   -1.7356    3.3995 H         1 <0>         0.0430
    123 H46         2.4066   -6.8405    2.8625 H         1 <0>         0.0430
    124 H47         3.9989   -6.1319    3.2374 H         1 <0>         0.0430
    125 H48         0.6775   -3.1072    0.4106 H         1 <0>         0.0430
    126 H49        -0.7306   -2.0322    0.2107 H         1 <0>         0.0430
    127 H50        -5.3122    6.2350   -0.2118 H         1 <0>         0.4068
    128 H51         0.6039    7.6144   -3.2011 H         1 <0>         0.4068
    129 H52         0.6689    1.1216    1.0998 H         1 <0>         0.4068
    130 H53        -5.8880   -0.5746    3.0981 H         1 <0>         0.4068
    131 H54         7.3012   -1.8522    1.2859 H         1 <0>         0.4068
    132 H55         2.5433   -7.3322   -2.2788 H         1 <0>         0.4068
    133 H56        -2.2216   -5.1970    3.4615 H         1 <0>         0.4068
    134 H57        -7.3760    2.9345   -0.1435 H         1 <0>         0.4111
    135 H58        -3.2374    6.7952   -2.7439 H         1 <0>         0.4111
    136 H59         4.3527    3.4688    0.9344 H         1 <0>         0.4111
    137 H60        -6.7385   -2.5059    0.7076 H         1 <0>         0.4111
    138 H61         5.3484   -1.7620   -2.5683 H         1 <0>         0.4111
    139 H62         5.0524   -4.3995   -2.8676 H         1 <0>         0.4111
    140 H63        -1.7919   -8.1086    1.8444 H         1 <0>         0.4111
    141 H64        -1.8814    4.8467    3.9190 H         1 <0>         0.4076
    142 H65         1.7002    9.0487    1.6990 H         1 <0>         0.4076
    143 H66        -1.0152    2.6731   -3.5841 H         1 <0>         0.4076
    144 H67        -1.8401    0.1846   -3.2706 H         1 <0>         0.4076
    145 H68         3.5962    0.2295    3.9671 H         1 <0>         0.4076
    146 H69         4.0714   -8.4003    2.9787 H         1 <0>         0.4076
    147 H70         0.7606   -1.8788   -1.5196 H         1 <0>         0.4076
@<TRIPOS>BOND
     1    1    8 1
     2    1   22 1
     3    1   43 1
     4    2    9 1
     5    2   23 1
     6    2   44 1
     7    3   10 1
     8    3   24 1
     9    3   46 1
    10    4   11 1
    11    4   25 1
    12    4   45 1
    13    5   12 1
    14    5   26 1
    15    5   47 1
    16    6   13 1
    17    6   27 1
    18    6   48 1
    19    7   14 1
    20    7   28 1
    21    7   49 1
    22    8   15 1
    23    8   57 1
    24    9   16 1
    25    9   58 1
    26   10   17 1
    27   10   59 1
    28   11   18 1
    29   11   60 1
    30   12   19 1
    31   12   61 1
    32   13   20 1
    33   13   62 1
    34   14   21 1
    35   14   63 1
    36   15   29 1
    37   15   64 1
    38   16   30 1
    39   16   65 1
    40   17   31 1
    41   17   66 1
    42   18   33 1
    43   18   67 1
    44   19   32 1
    45   19   68 1
    46   20   34 1
    47   20   69 1
    48   21   35 1
    49   21   70 1
    50   22   36 1
    51   22   50 1
    52   23   37 1
    53   23   51 1
    54   24   38 1
    55   24   52 1
    56   25   39 1
    57   25   54 1
    58   26   40 1
    59   26   53 1
    60   27   41 1
    61   27   55 1
    62   28   42 1
    63   28   56 1
    64   29   45 1
    65   29   50 1
    66   30   43 1
    67   30   51 1
    68   31   44 1
    69   31   52 1
    70   32   46 1
    71   32   53 1
    72   33   49 1
    73   33   54 1
    74   34   47 1
    75   34   55 1
    76   35   48 1
    77   35   56 1
    78   36   71 1
    79   37   72 1
    80   38   73 1
    81   39   74 1
    82   40   75 1
    83   41   76 1
    84   42   77 1
    85    1   78 1
    86    2   79 1
    87    3   80 1
    88    4   81 1
    89    5   82 1
    90    6   83 1
    91    7   84 1
    92    8   85 1
    93    9   86 1
    94   10   87 1
    95   11   88 1
    96   12   89 1
    97   13   90 1
    98   14   91 1
    99   15   92 1
   100   16   93 1
   101   17   94 1
   102   18   95 1
   103   19   96 1
   104   20   97 1
   105   21   98 1
   106   22   99 1
   107   23  100 1
   108   24  101 1
   109   25  102 1
   110   26  103 1
   111   27  104 1
   112   28  105 1
   113   29  106 1
   114   30  107 1
   115   31  108 1
   116   32  109 1
   117   33  110 1
   118   34  111 1
   119   35  112 1
   120   36  113 1
   121   36  114 1
   122   37  115 1
   123   37  116 1
   124   38  117 1
   125   38  118 1
   126   39  119 1
   127   39  120 1
   128   40  121 1
   129   40  122 1
   130   41  123 1
   131   41  124 1
   132   42  125 1
   133   42  126 1
   134   57  127 1
   135   58  128 1
   136   59  129 1
   137   60  130 1
   138   61  131 1
   139   62  132 1
   140   63  133 1
   141   64  134 1
   142   65  135 1
   143   66  136 1
   144   67  137 1
   145   68  138 1
   146   69  139 1
   147   70  140 1
   148   71  141 1
   149   72  142 1
   150   73  143 1
   151   74  144 1
   152   75  145 1
   153   76  146 1
   154   77  147 1
@<TRIPOS>MOLECULE
*****
  147   154     0     0     0
SMALL
USER_CHARGES

@<TRIPOS>ATOM
      1 C1         -3.3465    4.7547    0.4312 C.3       1 <0>         0.1012
      2 C2          0.8270    6.5135   -0.9435 C.3       1 <0>         0.1020
      3 C3          2.2917    1.4192   -0.8135 C.3       1 <0>         0.1020
      4 C4         -4.2259    0.2977    0.4701 C.3       1 <0>         0.1020
      5 C5          4.9118   -2.5786    0.7069 C.3       1 <0>         0.1020
      6 C6          2.5234   -6.4998    0.1075 C.3       1 <0>         0.1020
      7 C7         -1.9860   -4.1929    1.1261 C.3       1 <0>         0.1020
      8 C8         -4.5377    4.4823   -0.5056 C.3       1 <0>         0.1044
      9 C9         -0.1127    6.1764   -2.1159 C.3       1 <0>         0.1044
     10 C10         2.1702    2.1974    0.5103 C.3       1 <0>         0.1044
     11 C11        -5.2635   -0.5145    1.2638 C.3       1 <0>         0.1044
     12 C12         5.9440   -1.7673   -0.0959 C.3       1 <0>         0.1044
     13 C13         2.5807   -5.7159   -1.2090 C.3       1 <0>         0.1044
     14 C14        -2.1593   -5.6480    1.5773 C.3       1 <0>         0.1044
     15 C15        -5.6632    3.7596    0.2358 C.3       1 <0>         0.0999
     16 C16        -1.4768    6.8368   -1.9333 C.3       1 <0>         0.0999
     17 C17         2.5143    3.6808    0.3558 C.3       1 <0>         0.0999
     18 C18        -4.9503   -2.0148    1.2703 C.3       1 <0>         0.0999
     19 C19         5.2861   -0.6850   -0.9572 C.3       1 <0>         0.0999
     20 C20         4.0400   -5.4053   -1.5556 C.3       1 <0>         0.0999
     21 C21        -0.8453   -6.4252    1.6665 C.3       1 <0>         0.0999
     22 C22        -2.9746    3.4763    1.2077 C.3       1 <0>         0.1282
     23 C23         0.1407    6.5159    0.4395 C.3       1 <0>         0.1282
     24 C24         1.7882    2.2016   -2.0509 C.3       1 <0>         0.1282
     25 C25        -3.7470   -0.4989   -0.7559 C.3       1 <0>         0.1282
     26 C26         3.8569   -1.6869    1.3808 C.3       1 <0>         0.1282
     27 C27         3.3292   -5.7996    1.2145 C.3       1 <0>         0.1282
     28 C28        -1.1393   -4.1161   -0.1660 C.3       1 <0>         0.1282
     29 C29        -5.1475    2.5068    0.9460 C.3       1 <0>         0.3176
     30 C30        -2.0388    6.5507   -0.5399 C.3       1 <0>         0.3176
     31 C31         1.7425    4.2659   -0.8239 C.3       1 <0>         0.3176
     32 C32         4.2469    0.1236   -0.1714 C.3       1 <0>         0.3176
     33 C33        -3.5040   -2.3013    0.8477 C.3       1 <0>         0.3176
     34 C34         4.7505   -4.7202   -0.3847 C.3       1 <0>         0.3176
     35 C35         0.2548   -5.8237    0.7832 C.3       1 <0>         0.3176
     36 C36        -1.9704    3.7520    2.3214 C.3       1 <0>         0.1254
     37 C37         0.9847    7.2612    1.4716 C.3       1 <0>         0.1254
     38 C38         0.2915    2.0334   -2.3025 C.3       1 <0>         0.1254
     39 C39        -2.6339    0.2290   -1.5024 C.3       1 <0>         0.1254
     40 C40         4.3321   -0.9924    2.6540 C.3       1 <0>         0.1254
     41 C41         3.4089   -6.6478    2.4798 C.3       1 <0>         0.1254
     42 C42        -0.2082   -2.9000   -0.1863 C.3       1 <0>         0.1254
     43 O1         -2.2149    5.1370   -0.3640 O.3       1 <0>        -0.4088
     44 O2          1.9980    5.6727   -0.9272 O.3       1 <0>        -0.4088
     45 O3         -4.7611    1.5330   -0.0290 O.3       1 <0>        -0.4088
     46 O4          3.6558    1.0634   -1.0888 O.3       1 <0>        -0.4088
     47 O5          4.1732   -3.4257   -0.1869 O.3       1 <0>        -0.4088
     48 O6          1.2021   -6.8587    0.5103 O.3       1 <0>        -0.4088
     49 O7         -3.3263   -3.7184    0.9117 O.3       1 <0>        -0.4088
     50 O8         -4.1100    2.8864    1.8477 O.3       1 <0>        -0.4191
     51 O9         -1.1530    7.1244    0.4270 O.3       1 <0>        -0.4191
     52 O10         2.1380    3.5897   -2.0184 O.3       1 <0>        -0.4191
     53 O11         3.3056   -0.7599    0.4424 O.3       1 <0>        -0.4191
     54 O12        -3.2601   -1.8100   -0.4661 O.3       1 <0>        -0.4191
     55 O13         4.6732   -5.5536    0.7781 O.3       1 <0>        -0.4191
     56 O14        -0.3554   -5.3010   -0.3972 O.3       1 <0>        -0.4191
     57 O15        -5.0379    5.7285   -0.9909 O.3       1 <0>        -0.5890
     58 O16         0.4988    6.6586   -3.3154 O.3       1 <0>        -0.5890
     59 O17         0.8260    2.0695    0.9735 O.3       1 <0>        -0.5890
     60 O18        -5.2297   -0.0520    2.6179 O.3       1 <0>        -0.5890
     61 O19         6.8664   -1.1408    0.7900 O.3       1 <0>        -0.5890
     62 O20         2.0086   -6.5250   -2.2357 O.3       1 <0>        -0.5890
     63 O21        -2.8006   -5.6815    2.8552 O.3       1 <0>        -0.5890
     64 O22        -6.6967    3.3850   -0.6694 O.3       1 <0>        -0.5744
     65 O23        -2.3938    6.3448   -2.9060 O.3       1 <0>        -0.5744
     66 O24         3.9156    3.8407    0.1526 O.3       1 <0>        -0.5744
     67 O25        -5.8465   -2.6808    0.3753 O.3       1 <0>        -0.5744
     68 O26         4.6504   -1.3018   -2.0794 O.3       1 <0>        -0.5744
     69 O27         4.1106   -4.5595   -2.6988 O.3       1 <0>        -0.5744
     70 O28        -1.1214   -7.7655    1.2372 O.3       1 <0>        -0.5744
     71 O29        -2.5384    4.6876    3.2201 O.3       1 <0>        -0.5919
     72 O30         0.5696    6.8612    2.7642 O.3       1 <0>        -0.5919
     73 O31        -0.0606    2.7946   -3.4428 O.3       1 <0>        -0.5919
     74 O32        -3.2172    1.2223   -2.3262 O.3       1 <0>        -0.5919
     75 O33         3.2714   -0.2021    3.1584 O.3       1 <0>        -0.5919
     76 O34         4.1711   -5.9466    3.4454 O.3       1 <0>        -0.5919
     77 O35         0.3224   -2.7246    1.1125 O.3       1 <0>        -0.5919
     78 H1         -3.6023    5.5546    1.1394 H         1 <0>         0.0746
     79 H2          1.2097    7.5267   -1.1270 H         1 <0>         0.0746
     80 H3          1.7086    0.4907   -0.7658 H         1 <0>         0.0746
     81 H4         -3.3637    0.5223    1.1114 H         1 <0>         0.0746
     82 H5          5.4055   -3.1838    1.4776 H         1 <0>         0.0746
     83 H6          3.0124   -7.4645   -0.0893 H         1 <0>         0.0746
     84 H7         -1.5346   -3.6164    1.9438 H         1 <0>         0.0746
     85 H8         -4.2125    3.9153   -1.3857 H         1 <0>         0.0892
     86 H9         -0.2376    5.1015   -2.2629 H         1 <0>         0.0892
     87 H10         2.8166    1.7608    1.2773 H         1 <0>         0.0892
     88 H11        -6.2730   -0.3177    0.8817 H         1 <0>         0.0892
     89 H12         6.5164   -2.4367   -0.7477 H         1 <0>         0.0892
     90 H13         1.9926   -4.7958   -1.1607 H         1 <0>         0.0892
     91 H14        -2.8554   -6.1545    0.8852 H         1 <0>         0.0892
     92 H15        -6.1031    4.4449    0.9722 H         1 <0>         0.0654
     93 H16        -1.3835    7.9193   -2.0847 H         1 <0>         0.0654
     94 H17         2.2523    4.2301    1.2741 H         1 <0>         0.0654
     95 H18        -5.1337   -2.4535    2.2712 H         1 <0>         0.0654
     96 H19         6.0469    0.0022   -1.3616 H         1 <0>         0.0654
     97 H20         4.5581   -6.3401   -1.8055 H         1 <0>         0.0654
     98 H21        -0.4812   -6.5103    2.6971 H         1 <0>         0.0654
     99 H22        -2.5178    2.7449    0.5293 H         1 <0>         0.0972
    100 H23         0.0305    5.4983    0.8132 H         1 <0>         0.0972
    101 H24         2.2967    1.8044   -2.9386 H         1 <0>         0.0972
    102 H25        -4.5831   -0.6160   -1.4550 H         1 <0>         0.0972
    103 H26         3.0125   -2.3240    1.6719 H         1 <0>         0.0972
    104 H27         2.8726   -4.8433    1.4902 H         1 <0>         0.0972
    105 H28        -1.8048   -4.0327   -1.0330 H         1 <0>         0.0972
    106 H29        -5.9745    2.0936    1.5320 H         1 <0>         0.0680
    107 H30        -3.0013    7.0636   -0.4441 H         1 <0>         0.0680
    108 H31         0.6766    4.0953   -0.6545 H         1 <0>         0.0680
    109 H32         4.7473    0.7192    0.5987 H         1 <0>         0.0680
    110 H33        -2.8141   -1.8159    1.5494 H         1 <0>         0.0680
    111 H34         5.8088   -4.5992   -0.6407 H         1 <0>         0.0680
    112 H35         0.7403   -5.0147    1.3362 H         1 <0>         0.0680
    113 H36        -1.0533    4.1668    1.9023 H         1 <0>         0.0430
    114 H37        -1.7449    2.8296    2.8572 H         1 <0>         0.0430
    115 H38         0.8404    8.3354    1.3618 H         1 <0>         0.0430
    116 H39         2.0373    7.0143    1.3373 H         1 <0>         0.0430
    117 H40        -0.2716    2.3915   -1.4412 H         1 <0>         0.0430
    118 H41         0.0615    0.9840   -2.4835 H         1 <0>         0.0430
    119 H42        -2.0800   -0.4746   -2.1244 H         1 <0>         0.0430
    120 H43        -1.9563    0.7033   -0.7919 H         1 <0>         0.0430
    121 H44         5.1851   -0.3517    2.4313 H         1 <0>         0.0430
    122 H45         4.6144   -1.7356    3.3995 H         1 <0>         0.0430
    123 H46         3.8935   -7.5993    2.2601 H         1 <0>         0.0430
    124 H47         2.4077   -6.8269    2.8719 H         1 <0>         0.0430
    125 H48        -0.7702   -2.0137   -0.4731 H         1 <0>         0.0430
    126 H49         0.6027   -3.0714   -0.8911 H         1 <0>         0.0430
    127 H50        -5.3122    6.2350   -0.2118 H         1 <0>         0.4068
    128 H51         0.6039    7.6144   -3.2011 H         1 <0>         0.4068
    129 H52         0.6689    1.1216    1.0998 H         1 <0>         0.4068
    130 H53        -5.8880   -0.5746    3.0981 H         1 <0>         0.4068
    131 H54         7.3012   -1.8522    1.2859 H         1 <0>         0.4068
    132 H55         2.5433   -7.3322   -2.2788 H         1 <0>         0.4068
    133 H56        -2.2216   -5.1970    3.4615 H         1 <0>         0.4068
    134 H57        -7.3760    2.9345   -0.1435 H         1 <0>         0.4111
    135 H58        -3.2374    6.7952   -2.7439 H         1 <0>         0.4111
    136 H59         4.3527    3.4688    0.9344 H         1 <0>         0.4111
    137 H60        -6.7385   -2.5059    0.7076 H         1 <0>         0.4111
    138 H61         5.3484   -1.7620   -2.5683 H         1 <0>         0.4111
    139 H62         5.0524   -4.3995   -2.8676 H         1 <0>         0.4111
    140 H63        -1.7919   -8.1086    1.8444 H         1 <0>         0.4111
    141 H64        -1.8814    4.8467    3.9190 H         1 <0>         0.4076
    142 H65         1.1185    7.3465    3.4039 H         1 <0>         0.4076
    143 H66        -1.0152    2.6731   -3.5841 H         1 <0>         0.4076
    144 H67        -2.4901    1.6711   -2.7902 H         1 <0>         0.4076
    145 H68         3.5962    0.2295    3.9671 H         1 <0>         0.4076
    146 H69         4.2080   -6.5051    4.2405 H         1 <0>         0.4076
    147 H70         0.9100   -1.9496    1.0807 H         1 <0>         0.4076
@<TRIPOS>BOND
     1    1    8 1
     2    1   22 1
     3    1   43 1
     4    2    9 1
     5    2   23 1
     6    2   44 1
     7    3   10 1
     8    3   24 1
     9    3   46 1
    10    4   11 1
    11    4   25 1
    12    4   45 1
    13    5   12 1
    14    5   26 1
    15    5   47 1
    16    6   13 1
    17    6   27 1
    18    6   48 1
    19    7   14 1
    20    7   28 1
    21    7   49 1
    22    8   15 1
    23    8   57 1
    24    9   16 1
    25    9   58 1
    26   10   17 1
    27   10   59 1
    28   11   18 1
    29   11   60 1
    30   12   19 1
    31   12   61 1
    32   13   20 1
    33   13   62 1
    34   14   21 1
    35   14   63 1
    36   15   29 1
    37   15   64 1
    38   16   30 1
    39   16   65 1
    40   17   31 1
    41   17   66 1
    42   18   33 1
    43   18   67 1
    44   19   32 1
    45   19   68 1
    46   20   34 1
    47   20   69 1
    48   21   35 1
    49   21   70 1
    50   22   36 1
    51   22   50 1
    52   23   37 1
    53   23   51 1
    54   24   38 1
    55   24   52 1
    56   25   39 1
    57   25   54 1
    58   26   40 1
    59   26   53 1
    60   27   41 1
    61   27   55 1
    62   28   42 1
    63   28   56 1
    64   29   45 1
    65   29   50 1
    66   30   43 1
    67   30   51 1
    68   31   44 1
    69   31   52 1
    70   32   46 1
    71   32   53 1
    72   33   49 1
    73   33   54 1
    74   34   47 1
    75   34   55 1
    76   35   48 1
    77   35   56 1
    78   36   71 1
    79   37   72 1
    80   38   73 1
    81   39   74 1
    82   40   75 1
    83   41   76 1
    84   42   77 1
    85    1   78 1
    86    2   79 1
    87    3   80 1
    88    4   81 1
    89    5   82 1
    90    6   83 1
    91    7   84 1
    92    8   85 1
    93    9   86 1
    94   10   87 1
    95   11   88 1
    96   12   89 1
    97   13   90 1
    98   14   91 1
    99   15   92 1
   100   16   93 1
   101   17   94 1
   102   18   95 1
   103   19   96 1
   104   20   97 1
   105   21   98 1
   106   22   99 1
   107   23  100 1
   108   24  101 1
   109   25  102 1
   110   26  103 1
   111   27  104 1
   112   28  105 1
   113   29  106 1
   114   30  107 1
   115   31  108 1
   116   32  109 1
   117   33  110 1
   118   34  111 1
   119   35  112 1
   120   36  113 1
   121   36  114 1
   122   37  115 1
   123   37  116 1
   124   38  117 1
   125   38  118 1
   126   39  119 1
   127   39  120 1
   128   40  121 1
   129   40  122 1
   130   41  123 1
   131   41  124 1
   132   42  125 1
   133   42  126 1
   134   57  127 1
   135   58  128 1
   136   59  129 1
   137   60  130 1
   138   61  131 1
   139   62  132 1
   140   63  133 1
   141   64  134 1
   142   65  135 1
   143   66  136 1
   144   67  137 1
   145   68  138 1
   146   69  139 1
   147   70  140 1
   148   71  141 1
   149   72  142 1
   150   73  143 1
   151   74  144 1
   152   75  145 1
   153   76  146 1
   154   77  147 1
@<TRIPOS>MOLECULE
*****
  147   154     0     0     0
SMALL
USER_CHARGES

@<TRIPOS>ATOM
      1 C1         -3.3465    4.7547    0.4312 C.3       1 <0>         0.1012
      2 C2          0.8270    6.5135   -0.9435 C.3       1 <0>         0.1020
      3 C3          2.2917    1.4192   -0.8135 C.3       1 <0>         0.1020
      4 C4         -4.2259    0.2977    0.4701 C.3       1 <0>         0.1020
      5 C5          4.9118   -2.5786    0.7069 C.3       1 <0>         0.1020
      6 C6          2.5234   -6.4998    0.1075 C.3       1 <0>         0.1020
      7 C7         -1.9860   -4.1929    1.1261 C.3       1 <0>         0.1020
      8 C8         -4.5377    4.4823   -0.5056 C.3       1 <0>         0.1044
      9 C9         -0.1127    6.1764   -2.1159 C.3       1 <0>         0.1044
     10 C10         2.1702    2.1974    0.5103 C.3       1 <0>         0.1044
     11 C11        -5.2635   -0.5145    1.2638 C.3       1 <0>         0.1044
     12 C12         5.9440   -1.7673   -0.0959 C.3       1 <0>         0.1044
     13 C13         2.5807   -5.7159   -1.2090 C.3       1 <0>         0.1044
     14 C14        -2.1593   -5.6480    1.5773 C.3       1 <0>         0.1044
     15 C15        -5.6632    3.7596    0.2358 C.3       1 <0>         0.0999
     16 C16        -1.4768    6.8368   -1.9333 C.3       1 <0>         0.0999
     17 C17         2.5143    3.6808    0.3558 C.3       1 <0>         0.0999
     18 C18        -4.9503   -2.0148    1.2703 C.3       1 <0>         0.0999
     19 C19         5.2861   -0.6850   -0.9572 C.3       1 <0>         0.0999
     20 C20         4.0400   -5.4053   -1.5556 C.3       1 <0>         0.0999
     21 C21        -0.8453   -6.4252    1.6665 C.3       1 <0>         0.0999
     22 C22        -2.9746    3.4763    1.2077 C.3       1 <0>         0.1282
     23 C23         0.1407    6.5159    0.4395 C.3       1 <0>         0.1282
     24 C24         1.7882    2.2016   -2.0509 C.3       1 <0>         0.1282
     25 C25        -3.7470   -0.4989   -0.7559 C.3       1 <0>         0.1282
     26 C26         3.8569   -1.6869    1.3808 C.3       1 <0>         0.1282
     27 C27         3.3292   -5.7996    1.2145 C.3       1 <0>         0.1282
     28 C28        -1.1393   -4.1161   -0.1660 C.3       1 <0>         0.1282
     29 C29        -5.1475    2.5068    0.9460 C.3       1 <0>         0.3176
     30 C30        -2.0388    6.5507   -0.5399 C.3       1 <0>         0.3176
     31 C31         1.7425    4.2659   -0.8239 C.3       1 <0>         0.3176
     32 C32         4.2469    0.1236   -0.1714 C.3       1 <0>         0.3176
     33 C33        -3.5040   -2.3013    0.8477 C.3       1 <0>         0.3176
     34 C34         4.7505   -4.7202   -0.3847 C.3       1 <0>         0.3176
     35 C35         0.2548   -5.8237    0.7832 C.3       1 <0>         0.3176
     36 C36        -1.9704    3.7520    2.3214 C.3       1 <0>         0.1254
     37 C37         0.9847    7.2612    1.4716 C.3       1 <0>         0.1254
     38 C38         0.2915    2.0334   -2.3025 C.3       1 <0>         0.1254
     39 C39        -2.6339    0.2290   -1.5024 C.3       1 <0>         0.1254
     40 C40         4.3321   -0.9924    2.6540 C.3       1 <0>         0.1254
     41 C41         3.4089   -6.6478    2.4798 C.3       1 <0>         0.1254
     42 C42        -0.2082   -2.9000   -0.1863 C.3       1 <0>         0.1254
     43 O1         -2.2149    5.1370   -0.3640 O.3       1 <0>        -0.4088
     44 O2          1.9980    5.6727   -0.9272 O.3       1 <0>        -0.4088
     45 O3         -4.7611    1.5330   -0.0290 O.3       1 <0>        -0.4088
     46 O4          3.6558    1.0634   -1.0888 O.3       1 <0>        -0.4088
     47 O5          4.1732   -3.4257   -0.1869 O.3       1 <0>        -0.4088
     48 O6          1.2021   -6.8587    0.5103 O.3       1 <0>        -0.4088
     49 O7         -3.3263   -3.7184    0.9117 O.3       1 <0>        -0.4088
     50 O8         -4.1100    2.8864    1.8477 O.3       1 <0>        -0.4191
     51 O9         -1.1530    7.1244    0.4270 O.3       1 <0>        -0.4191
     52 O10         2.1380    3.5897   -2.0184 O.3       1 <0>        -0.4191
     53 O11         3.3056   -0.7599    0.4424 O.3       1 <0>        -0.4191
     54 O12        -3.2601   -1.8100   -0.4661 O.3       1 <0>        -0.4191
     55 O13         4.6732   -5.5536    0.7781 O.3       1 <0>        -0.4191
     56 O14        -0.3554   -5.3010   -0.3972 O.3       1 <0>        -0.4191
     57 O15        -5.0379    5.7285   -0.9909 O.3       1 <0>        -0.5890
     58 O16         0.4988    6.6586   -3.3154 O.3       1 <0>        -0.5890
     59 O17         0.8260    2.0695    0.9735 O.3       1 <0>        -0.5890
     60 O18        -5.2297   -0.0520    2.6179 O.3       1 <0>        -0.5890
     61 O19         6.8664   -1.1408    0.7900 O.3       1 <0>        -0.5890
     62 O20         2.0086   -6.5250   -2.2357 O.3       1 <0>        -0.5890
     63 O21        -2.8006   -5.6815    2.8552 O.3       1 <0>        -0.5890
     64 O22        -6.6967    3.3850   -0.6694 O.3       1 <0>        -0.5744
     65 O23        -2.3938    6.3448   -2.9060 O.3       1 <0>        -0.5744
     66 O24         3.9156    3.8407    0.1526 O.3       1 <0>        -0.5744
     67 O25        -5.8465   -2.6808    0.3753 O.3       1 <0>        -0.5744
     68 O26         4.6504   -1.3018   -2.0794 O.3       1 <0>        -0.5744
     69 O27         4.1106   -4.5595   -2.6988 O.3       1 <0>        -0.5744
     70 O28        -1.1214   -7.7655    1.2372 O.3       1 <0>        -0.5744
     71 O29        -1.6914    2.5348    2.9894 O.3       1 <0>        -0.5919
     72 O30         1.1617    8.5938    1.0289 O.3       1 <0>        -0.5919
     73 O31        -0.0606    2.7946   -3.4428 O.3       1 <0>        -0.5919
     74 O32        -3.2172    1.2223   -2.3262 O.3       1 <0>        -0.5919
     75 O33         4.7005   -1.9828    3.5962 O.3       1 <0>        -0.5919
     76 O34         4.0319   -7.8783    2.1592 O.3       1 <0>        -0.5919
     77 O35         0.3224   -2.7246    1.1125 O.3       1 <0>        -0.5919
     78 H1         -3.6023    5.5546    1.1394 H         1 <0>         0.0746
     79 H2          1.2097    7.5267   -1.1270 H         1 <0>         0.0746
     80 H3          1.7086    0.4907   -0.7658 H         1 <0>         0.0746
     81 H4         -3.3637    0.5223    1.1114 H         1 <0>         0.0746
     82 H5          5.4055   -3.1838    1.4776 H         1 <0>         0.0746
     83 H6          3.0124   -7.4645   -0.0893 H         1 <0>         0.0746
     84 H7         -1.5346   -3.6164    1.9438 H         1 <0>         0.0746
     85 H8         -4.2125    3.9153   -1.3857 H         1 <0>         0.0892
     86 H9         -0.2376    5.1015   -2.2629 H         1 <0>         0.0892
     87 H10         2.8166    1.7608    1.2773 H         1 <0>         0.0892
     88 H11        -6.2730   -0.3177    0.8817 H         1 <0>         0.0892
     89 H12         6.5164   -2.4367   -0.7477 H         1 <0>         0.0892
     90 H13         1.9926   -4.7958   -1.1607 H         1 <0>         0.0892
     91 H14        -2.8554   -6.1545    0.8852 H         1 <0>         0.0892
     92 H15        -6.1031    4.4449    0.9722 H         1 <0>         0.0654
     93 H16        -1.3835    7.9193   -2.0847 H         1 <0>         0.0654
     94 H17         2.2523    4.2301    1.2741 H         1 <0>         0.0654
     95 H18        -5.1337   -2.4535    2.2712 H         1 <0>         0.0654
     96 H19         6.0469    0.0022   -1.3616 H         1 <0>         0.0654
     97 H20         4.5581   -6.3401   -1.8055 H         1 <0>         0.0654
     98 H21        -0.4812   -6.5103    2.6971 H         1 <0>         0.0654
     99 H22        -2.5178    2.7449    0.5293 H         1 <0>         0.0972
    100 H23         0.0305    5.4983    0.8132 H         1 <0>         0.0972
    101 H24         2.2967    1.8044   -2.9386 H         1 <0>         0.0972
    102 H25        -4.5831   -0.6160   -1.4550 H         1 <0>         0.0972
    103 H26         3.0125   -2.3240    1.6719 H         1 <0>         0.0972
    104 H27         2.8726   -4.8433    1.4902 H         1 <0>         0.0972
    105 H28        -1.8048   -4.0327   -1.0330 H         1 <0>         0.0972
    106 H29        -5.9745    2.0936    1.5320 H         1 <0>         0.0680
    107 H30        -3.0013    7.0636   -0.4441 H         1 <0>         0.0680
    108 H31         0.6766    4.0953   -0.6545 H         1 <0>         0.0680
    109 H32         4.7473    0.7192    0.5987 H         1 <0>         0.0680
    110 H33        -2.8141   -1.8159    1.5494 H         1 <0>         0.0680
    111 H34         5.8088   -4.5992   -0.6407 H         1 <0>         0.0680
    112 H35         0.7403   -5.0147    1.3362 H         1 <0>         0.0680
    113 H36        -2.3886    4.4649    3.0325 H         1 <0>         0.0430
    114 H37        -1.0472    4.1514    1.9009 H         1 <0>         0.0430
    115 H38         1.9576    6.7810    1.5706 H         1 <0>         0.0430
    116 H39         0.4748    7.2646    2.4343 H         1 <0>         0.0430
    117 H40        -0.2716    2.3915   -1.4412 H         1 <0>         0.0430
    118 H41         0.0615    0.9840   -2.4835 H         1 <0>         0.0430
    119 H42        -2.0800   -0.4746   -2.1244 H         1 <0>         0.0430
    120 H43        -1.9563    0.7033   -0.7919 H         1 <0>         0.0430
    121 H44         3.5284   -0.3830    3.0668 H         1 <0>         0.0430
    122 H45         5.1953   -0.3643    2.4347 H         1 <0>         0.0430
    123 H46         2.4066   -6.8405    2.8625 H         1 <0>         0.0430
    124 H47         3.9989   -6.1319    3.2374 H         1 <0>         0.0430
    125 H48        -0.7702   -2.0137   -0.4731 H         1 <0>         0.0430
    126 H49         0.6027   -3.0714   -0.8911 H         1 <0>         0.0430
    127 H50        -5.3122    6.2350   -0.2118 H         1 <0>         0.4068
    128 H51         0.6039    7.6144   -3.2011 H         1 <0>         0.4068
    129 H52         0.6689    1.1216    1.0998 H         1 <0>         0.4068
    130 H53        -5.8880   -0.5746    3.0981 H         1 <0>         0.4068
    131 H54         7.3012   -1.8522    1.2859 H         1 <0>         0.4068
    132 H55         2.5433   -7.3322   -2.2788 H         1 <0>         0.4068
    133 H56        -2.2216   -5.1970    3.4615 H         1 <0>         0.4068
    134 H57        -7.3760    2.9345   -0.1435 H         1 <0>         0.4111
    135 H58        -3.2374    6.7952   -2.7439 H         1 <0>         0.4111
    136 H59         4.3527    3.4688    0.9344 H         1 <0>         0.4111
    137 H60        -6.7385   -2.5059    0.7076 H         1 <0>         0.4111
    138 H61         5.3484   -1.7620   -2.5683 H         1 <0>         0.4111
    139 H62         5.0524   -4.3995   -2.8676 H         1 <0>         0.4111
    140 H63        -1.7919   -8.1086    1.8444 H         1 <0>         0.4111
    141 H64        -1.0509    2.7358    3.6928 H         1 <0>         0.4076
    142 H65         1.7002    9.0487    1.6990 H         1 <0>         0.4076
    143 H66        -1.0152    2.6731   -3.5841 H         1 <0>         0.4076
    144 H67        -2.4901    1.6711   -2.7902 H         1 <0>         0.4076
    145 H68         4.9991   -1.5185    4.3968 H         1 <0>         0.4076
    146 H69         4.0714   -8.4003    2.9787 H         1 <0>         0.4076
    147 H70         0.9100   -1.9496    1.0807 H         1 <0>         0.4076
@<TRIPOS>BOND
     1    1    8 1
     2    1   22 1
     3    1   43 1
     4    2    9 1
     5    2   23 1
     6    2   44 1
     7    3   10 1
     8    3   24 1
     9    3   46 1
    10    4   11 1
    11    4   25 1
    12    4   45 1
    13    5   12 1
    14    5   26 1
    15    5   47 1
    16    6   13 1
    17    6   27 1
    18    6   48 1
    19    7   14 1
    20    7   28 1
    21    7   49 1
    22    8   15 1
    23    8   57 1
    24    9   16 1
    25    9   58 1
    26   10   17 1
    27   10   59 1
    28   11   18 1
    29   11   60 1
    30   12   19 1
    31   12   61 1
    32   13   20 1
    33   13   62 1
    34   14   21 1
    35   14   63 1
    36   15   29 1
    37   15   64 1
    38   16   30 1
    39   16   65 1
    40   17   31 1
    41   17   66 1
    42   18   33 1
    43   18   67 1
    44   19   32 1
    45   19   68 1
    46   20   34 1
    47   20   69 1
    48   21   35 1
    49   21   70 1
    50   22   36 1
    51   22   50 1
    52   23   37 1
    53   23   51 1
    54   24   38 1
    55   24   52 1
    56   25   39 1
    57   25   54 1
    58   26   40 1
    59   26   53 1
    60   27   41 1
    61   27   55 1
    62   28   42 1
    63   28   56 1
    64   29   45 1
    65   29   50 1
    66   30   43 1
    67   30   51 1
    68   31   44 1
    69   31   52 1
    70   32   46 1
    71   32   53 1
    72   33   49 1
    73   33   54 1
    74   34   47 1
    75   34   55 1
    76   35   48 1
    77   35   56 1
    78   36   71 1
    79   37   72 1
    80   38   73 1
    81   39   74 1
    82   40   75 1
    83   41   76 1
    84   42   77 1
    85    1   78 1
    86    2   79 1
    87    3   80 1
    88    4   81 1
    89    5   82 1
    90    6   83 1
    91    7   84 1
    92    8   85 1
    93    9   86 1
    94   10   87 1
    95   11   88 1
    96   12   89 1
    97   13   90 1
    98   14   91 1
    99   15   92 1
   100   16   93 1
   101   17   94 1
   102   18   95 1
   103   19   96 1
   104   20   97 1
   105   21   98 1
   106   22   99 1
   107   23  100 1
   108   24  101 1
   109   25  102 1
   110   26  103 1
   111   27  104 1
   112   28  105 1
   113   29  106 1
   114   30  107 1
   115   31  108 1
   116   32  109 1
   117   33  110 1
   118   34  111 1
   119   35  112 1
   120   36  113 1
   121   36  114 1
   122   37  115 1
   123   37  116 1
   124   38  117 1
   125   38  118 1
   126   39  119 1
   127   39  120 1
   128   40  121 1
   129   40  122 1
   130   41  123 1
   131   41  124 1
   132   42  125 1
   133   42  126 1
   134   57  127 1
   135   58  128 1
   136   59  129 1
   137   60  130 1
   138   61  131 1
   139   62  132 1
   140   63  133 1
   141   64  134 1
   142   65  135 1
   143   66  136 1
   144   67  137 1
   145   68  138 1
   146   69  139 1
   147   70  140 1
   148   71  141 1
   149   72  142 1
   150   73  143 1
   151   74  144 1
   152   75  145 1
   153   76  146 1
   154   77  147 1
@<TRIPOS>MOLECULE
*****
  147   154     0     0     0
SMALL
USER_CHARGES

@<TRIPOS>ATOM
      1 C1         -6.1085   -1.3572   -0.5321 C.3       1 <0>         0.1012
      2 C2         -3.8641   -5.1224   -1.1328 C.3       1 <0>         0.1020
      3 C3          0.7697   -3.2416   -1.1943 C.3       1 <0>         0.1020
      4 C4         -2.9459    2.7391    0.3171 C.3       1 <0>         0.1020
      5 C5          5.0698   -1.3311   -0.1904 C.3       1 <0>         0.1020
      6 C6          6.2344    3.2650    0.5387 C.3       1 <0>         0.1020
      7 C7          1.2988    4.4037    0.9387 C.3       1 <0>         0.1020
      8 C8         -6.3966   -0.6989    0.8274 C.3       1 <0>         0.1044
      9 C9         -4.0502   -5.0766    0.3961 C.3       1 <0>         0.1044
     10 C10        -0.1170   -1.9909   -1.0350 C.3       1 <0>         0.1044
     11 C11        -3.0094    3.8370    1.3885 C.3       1 <0>         0.1044
     12 C12         3.8192   -1.4713    0.6920 C.3       1 <0>         0.1044
     13 C13         6.1077    2.1412    1.5772 C.3       1 <0>         0.1044
     14 C14         1.9512    5.7335    0.5104 C.3       1 <0>         0.1044
     15 C15        -5.1532   -0.0058    1.3958 C.3       1 <0>         0.0999
     16 C16        -5.4699   -4.6919    0.8070 C.3       1 <0>         0.0999
     17 C17        -1.5728   -2.2625   -1.4091 C.3       1 <0>         0.0999
     18 C18        -2.3840    5.1306    0.8706 C.3       1 <0>         0.0999
     19 C19         3.3610   -2.9261    0.7368 C.3       1 <0>         0.0999
     20 C20         6.9916    0.9636    1.1659 C.3       1 <0>         0.0999
     21 C21         3.4648    5.7379    0.7409 C.3       1 <0>         0.0999
     22 C22        -5.3009   -0.4481   -1.4792 C.3       1 <0>         0.1282
     23 C23        -5.2019   -5.2621   -1.8898 C.3       1 <0>         0.1282
     24 C24         0.2781   -4.0534   -2.4063 C.3       1 <0>         0.1282
     25 C25        -1.5102    2.6195   -0.2117 C.3       1 <0>         0.1282
     26 C26         4.8307   -2.0074   -1.5545 C.3       1 <0>         0.1282
     27 C27         6.0481    2.7418   -0.8991 C.3       1 <0>         0.1282
     28 C28         2.0701    3.7915    2.1196 C.3       1 <0>         0.1282
     29 C29        -4.5238    0.9239    0.3542 C.3       1 <0>         0.3176
     30 C30        -6.1016   -3.7370   -0.1984 C.3       1 <0>         0.3176
     31 C31        -1.8809   -3.7563   -1.3374 C.3       1 <0>         0.3176
     32 C32         3.1353   -3.4643   -0.6812 C.3       1 <0>         0.3176
     33 C33        -0.9835    4.8948    0.2943 C.3       1 <0>         0.3176
     34 C34         6.6512    0.5104   -0.2590 C.3       1 <0>         0.3176
     35 C35         4.0169    4.3077    0.7623 C.3       1 <0>         0.3176
     36 C36        -6.1541    0.5830   -2.2152 C.3       1 <0>         0.1254
     37 C37        -5.7521   -6.6865   -1.8461 C.3       1 <0>         0.1254
     38 C38         1.1257   -5.2874   -2.6922 C.3       1 <0>         0.1254
     39 C39        -1.3958    1.6265   -1.3579 C.3       1 <0>         0.1254
     40 C40         6.0927   -2.0602   -2.4093 C.3       1 <0>         0.1254
     41 C41         6.3900    3.8101   -1.9333 C.3       1 <0>         0.1254
     42 C42         1.4816    2.4538    2.5633 C.3       1 <0>         0.1254
     43 O1         -5.3224   -2.5358   -0.2895 O.3       1 <0>        -0.4088
     44 O2         -3.2811   -3.8973   -1.6022 O.3       1 <0>        -0.4088
     45 O3         -3.3471    1.5091    0.9328 O.3       1 <0>        -0.4088
     46 O4          2.1035   -2.7680   -1.3881 O.3       1 <0>        -0.4088
     47 O5          5.2941    0.0685   -0.3726 O.3       1 <0>        -0.4088
     48 O6          5.4413    4.4131    0.8556 O.3       1 <0>        -0.4088
     49 O7         -0.0629    4.5972    1.3525 O.3       1 <0>        -0.4088
     50 O8         -4.1998    0.1861   -0.8235 O.3       1 <0>        -0.4191
     51 O9         -6.2424   -4.3632   -1.4755 O.3       1 <0>        -0.4191
     52 O10        -1.0780   -4.5067   -2.2536 O.3       1 <0>        -0.4191
     53 O11         4.3805   -3.3619   -1.3937 O.3       1 <0>        -0.4191
     54 O12        -1.0507    3.8801   -0.7111 O.3       1 <0>        -0.4191
     55 O13         6.8984    1.6115   -1.1507 O.3       1 <0>        -0.4191
     56 O14         3.4535    3.5597    1.8382 O.3       1 <0>        -0.4191
     57 O15        -7.4360    0.2652    0.6951 O.3       1 <0>        -0.5890
     58 O16        -3.7806   -6.3687    0.9449 O.3       1 <0>        -0.5890
     59 O17        -0.0891   -1.5807    0.3334 O.3       1 <0>        -0.5890
     60 O18        -4.3762    4.0982    1.7123 O.3       1 <0>        -0.5890
     61 O19         4.1130   -1.0321    2.0185 O.3       1 <0>        -0.5890
     62 O20         6.5503    2.6243    2.8453 O.3       1 <0>        -0.5890
     63 O21         1.7162    5.8967   -0.8917 O.3       1 <0>        -0.5890
     64 O22        -4.1861   -0.9809    1.7847 O.3       1 <0>        -0.5744
     65 O23        -5.4254   -4.0910    2.0999 O.3       1 <0>        -0.5744
     66 O24        -1.8189   -1.8231   -2.7470 O.3       1 <0>        -0.5744
     67 O25        -2.3273    6.0847    1.9262 O.3       1 <0>        -0.5744
     68 O26         2.1910   -3.0305    1.5341 O.3       1 <0>        -0.5744
     69 O27         6.8372   -0.0973    2.0976 O.3       1 <0>        -0.5744
     70 O28         3.7330    6.3673    1.9957 O.3       1 <0>        -0.5744
     71 O29        -7.1134   -0.1021   -3.0000 O.3       1 <0>        -0.5919
     72 O30        -6.6886   -6.8384   -2.8964 O.3       1 <0>        -0.5919
     73 O31         0.5791   -5.9582   -3.8124 O.3       1 <0>        -0.5919
     74 O32        -0.0473    1.5877   -1.7889 O.3       1 <0>        -0.5919
     75 O33         5.7819   -2.7039   -3.6313 O.3       1 <0>        -0.5919
     76 O34         6.2081    3.2609   -3.2257 O.3       1 <0>        -0.5919
     77 O35         1.5303    1.5614    1.4676 O.3       1 <0>        -0.5919
     78 H1         -7.0586   -1.6466   -1.0179 H         1 <0>         0.0746
     79 H2         -3.2205   -5.9013   -1.3934 H         1 <0>         0.0746
     80 H3          0.7115   -3.8441   -0.3149 H         1 <0>         0.0746
     81 H4         -3.6355    2.9829   -0.4849 H         1 <0>         0.0746
     82 H5          5.9247   -1.8055    0.3038 H         1 <0>         0.0746
     83 H6          7.2706    3.6333    0.6210 H         1 <0>         0.0746
     84 H7          1.3072    3.6977    0.0797 H         1 <0>         0.0746
     85 H8         -6.7763   -1.4560    1.5435 H         1 <0>         0.0892
     86 H9         -3.3380   -4.4045    0.8973 H         1 <0>         0.0892
     87 H10         0.2544   -1.1617   -1.6304 H         1 <0>         0.0892
     88 H11        -2.5119    3.4987    2.3077 H         1 <0>         0.0892
     89 H12         3.0161   -0.8529    0.2998 H         1 <0>         0.0892
     90 H13         5.0715    1.8147    1.7033 H         1 <0>         0.0892
     91 H14         1.4664    6.5558    1.0087 H         1 <0>         0.0892
     92 H15        -5.4315    0.5619    2.2832 H         1 <0>         0.0654
     93 H16        -6.0754   -5.6085    0.8967 H         1 <0>         0.0654
     94 H17        -2.2576   -1.7116   -0.7572 H         1 <0>         0.0654
     95 H18        -3.0272    5.5861    0.0804 H         1 <0>         0.0654
     96 H19         4.1433   -3.5460    1.2294 H         1 <0>         0.0654
     97 H20         8.0457    1.2888    1.2079 H         1 <0>         0.0654
     98 H21         4.0001    6.3183   -0.0175 H         1 <0>         0.0654
     99 H22        -4.8647   -1.1200   -2.2936 H         1 <0>         0.0972
    100 H23        -5.0300   -5.0589   -2.9777 H         1 <0>         0.0972
    101 H24         0.2828   -3.4488   -3.2904 H         1 <0>         0.0972
    102 H25        -0.8498    2.3234    0.5809 H         1 <0>         0.0972
    103 H26         4.0877   -1.5008   -2.1027 H         1 <0>         0.0972
    104 H27         5.0085    2.4404   -1.0756 H         1 <0>         0.0972
    105 H28         2.0461    4.4597    2.9757 H         1 <0>         0.0972
    106 H29        -5.2136    1.7052    0.1100 H         1 <0>         0.0680
    107 H30        -7.1163   -3.4813    0.1484 H         1 <0>         0.0680
    108 H31        -1.6780   -4.0900   -0.3115 H         1 <0>         0.0680
    109 H32         2.8503   -4.5205   -0.6557 H         1 <0>         0.0680
    110 H33        -0.6516    5.8416   -0.2107 H         1 <0>         0.0680
    111 H34         7.3210   -0.2976   -0.5530 H         1 <0>         0.0680
    112 H35         3.7620    3.8236   -0.1955 H         1 <0>         0.0680
    113 H36        -5.5252    1.1913   -2.8658 H         1 <0>         0.0430
    114 H37        -6.6675    1.2233   -1.4974 H         1 <0>         0.0430
    115 H38        -6.2472   -6.8630   -0.8919 H         1 <0>         0.0430
    116 H39        -4.9407   -7.4012   -1.9789 H         1 <0>         0.0430
    117 H40         1.1126   -5.9538   -1.8303 H         1 <0>         0.0430
    118 H41         2.1503   -4.9903   -2.9135 H         1 <0>         0.0430
    119 H42        -2.0298    1.9402   -2.1877 H         1 <0>         0.0430
    120 H43        -1.6950    0.6332   -1.0223 H         1 <0>         0.0430
    121 H44         6.8685   -2.6240   -1.8917 H         1 <0>         0.0430
    122 H45         6.4458   -1.0496   -2.6134 H         1 <0>         0.0430
    123 H46         7.4280    4.1218   -1.8172 H         1 <0>         0.0430
    124 H47         5.7318    4.6704   -1.8116 H         1 <0>         0.0430
    125 H48         0.4483    2.5936    2.8736 H         1 <0>         0.0430
    126 H49         2.0671    2.0515    3.3873 H         1 <0>         0.0430
    127 H50        -8.2147   -0.2146    0.3754 H         1 <0>         0.4068
    128 H51        -2.8642   -6.5770    0.7114 H         1 <0>         0.4068
    129 H52        -0.6545   -0.7961    0.3956 H         1 <0>         0.4068
    130 H53        -4.7981    4.3863    0.8900 H         1 <0>         0.4068
    131 H54         4.8297   -1.5981    2.3455 H         1 <0>         0.4068
    132 H55         7.4751    2.8906    2.7299 H         1 <0>         0.4068
    133 H56         2.1324    6.7348   -1.1404 H         1 <0>         0.4068
    134 H57        -4.6074   -1.5353    2.4600 H         1 <0>         0.4111
    135 H58        -6.3390   -3.8599    2.3294 H         1 <0>         0.4111
    136 H59        -1.6314   -0.8717   -2.7647 H         1 <0>         0.4111
    137 H60        -1.9260    6.8805    1.5489 H         1 <0>         0.4111
    138 H61         1.9423   -3.9666    1.5307 H         1 <0>         0.4111
    139 H62         7.4137   -0.8171    1.7964 H         1 <0>         0.4111
    140 H63         3.3820    7.2660    1.9252 H         1 <0>         0.4111
    141 H64        -7.6427    0.5733   -3.4574 H         1 <0>         0.4076
    142 H65        -7.0252   -7.7498   -2.8499 H         1 <0>         0.4076
    143 H66         1.1339   -6.7399   -3.9763 H         1 <0>         0.4076
    144 H67         0.0002    0.9480   -2.5197 H         1 <0>         0.4076
    145 H68         6.5989   -2.7260   -4.1584 H         1 <0>         0.4076
    146 H69         6.4313    3.9579   -3.8660 H         1 <0>         0.4076
    147 H70         1.1523    0.7166    1.7679 H         1 <0>         0.4076
@<TRIPOS>BOND
     1    1    8 1
     2    1   22 1
     3    1   43 1
     4    2    9 1
     5    2   23 1
     6    2   44 1
     7    3   10 1
     8    3   24 1
     9    3   46 1
    10    4   11 1
    11    4   25 1
    12    4   45 1
    13    5   12 1
    14    5   26 1
    15    5   47 1
    16    6   13 1
    17    6   27 1
    18    6   48 1
    19    7   14 1
    20    7   28 1
    21    7   49 1
    22    8   15 1
    23    8   57 1
    24    9   16 1
    25    9   58 1
    26   10   17 1
    27   10   59 1
    28   11   18 1
    29   11   60 1
    30   12   19 1
    31   12   61 1
    32   13   20 1
    33   13   62 1
    34   14   21 1
    35   14   63 1
    36   15   29 1
    37   15   64 1
    38   16   30 1
    39   16   65 1
    40   17   31 1
    41   17   66 1
    42   18   33 1
    43   18   67 1
    44   19   32 1
    45   19   68 1
    46   20   34 1
    47   20   69 1
    48   21   35 1
    49   21   70 1
    50   22   36 1
    51   22   50 1
    52   23   37 1
    53   23   51 1
    54   24   38 1
    55   24   52 1
    56   25   39 1
    57   25   54 1
    58   26   40 1
    59   26   53 1
    60   27   41 1
    61   27   55 1
    62   28   42 1
    63   28   56 1
    64   29   45 1
    65   29   50 1
    66   30   43 1
    67   30   51 1
    68   31   44 1
    69   31   52 1
    70   32   46 1
    71   32   53 1
    72   33   49 1
    73   33   54 1
    74   34   47 1
    75   34   55 1
    76   35   48 1
    77   35   56 1
    78   36   71 1
    79   37   72 1
    80   38   73 1
    81   39   74 1
    82   40   75 1
    83   41   76 1
    84   42   77 1
    85    1   78 1
    86    2   79 1
    87    3   80 1
    88    4   81 1
    89    5   82 1
    90    6   83 1
    91    7   84 1
    92    8   85 1
    93    9   86 1
    94   10   87 1
    95   11   88 1
    96   12   89 1
    97   13   90 1
    98   14   91 1
    99   15   92 1
   100   16   93 1
   101   17   94 1
   102   18   95 1
   103   19   96 1
   104   20   97 1
   105   21   98 1
   106   22   99 1
   107   23  100 1
   108   24  101 1
   109   25  102 1
   110   26  103 1
   111   27  104 1
   112   28  105 1
   113   29  106 1
   114   30  107 1
   115   31  108 1
   116   32  109 1
   117   33  110 1
   118   34  111 1
   119   35  112 1
   120   36  113 1
   121   36  114 1
   122   37  115 1
   123   37  116 1
   124   38  117 1
   125   38  118 1
   126   39  119 1
   127   39  120 1
   128   40  121 1
   129   40  122 1
   130   41  123 1
   131   41  124 1
   132   42  125 1
   133   42  126 1
   134   57  127 1
   135   58  128 1
   136   59  129 1
   137   60  130 1
   138   61  131 1
   139   62  132 1
   140   63  133 1
   141   64  134 1
   142   65  135 1
   143   66  136 1
   144   67  137 1
   145   68  138 1
   146   69  139 1
   147   70  140 1
   148   71  141 1
   149   72  142 1
   150   73  143 1
   151   74  144 1
   152   75  145 1
   153   76  146 1
   154   77  147 1
@<TRIPOS>MOLECULE
*****
  147   154     0     0     0
SMALL
USER_CHARGES

@<TRIPOS>ATOM
      1 C1         -6.1085   -1.3572   -0.5321 C.3       1 <0>         0.1012
      2 C2         -3.8641   -5.1224   -1.1328 C.3       1 <0>         0.1020
      3 C3          0.7697   -3.2416   -1.1943 C.3       1 <0>         0.1020
      4 C4         -2.9459    2.7391    0.3171 C.3       1 <0>         0.1020
      5 C5          5.0698   -1.3311   -0.1904 C.3       1 <0>         0.1020
      6 C6          6.2344    3.2650    0.5387 C.3       1 <0>         0.1020
      7 C7          1.2988    4.4037    0.9387 C.3       1 <0>         0.1020
      8 C8         -6.3966   -0.6989    0.8274 C.3       1 <0>         0.1044
      9 C9         -4.0502   -5.0766    0.3961 C.3       1 <0>         0.1044
     10 C10        -0.1170   -1.9909   -1.0350 C.3       1 <0>         0.1044
     11 C11        -3.0094    3.8370    1.3885 C.3       1 <0>         0.1044
     12 C12         3.8192   -1.4713    0.6920 C.3       1 <0>         0.1044
     13 C13         6.1077    2.1412    1.5772 C.3       1 <0>         0.1044
     14 C14         1.9512    5.7335    0.5104 C.3       1 <0>         0.1044
     15 C15        -5.1532   -0.0058    1.3958 C.3       1 <0>         0.0999
     16 C16        -5.4699   -4.6919    0.8070 C.3       1 <0>         0.0999
     17 C17        -1.5728   -2.2625   -1.4091 C.3       1 <0>         0.0999
     18 C18        -2.3840    5.1306    0.8706 C.3       1 <0>         0.0999
     19 C19         3.3610   -2.9261    0.7368 C.3       1 <0>         0.0999
     20 C20         6.9916    0.9636    1.1659 C.3       1 <0>         0.0999
     21 C21         3.4648    5.7379    0.7409 C.3       1 <0>         0.0999
     22 C22        -5.3009   -0.4481   -1.4792 C.3       1 <0>         0.1282
     23 C23        -5.2019   -5.2621   -1.8898 C.3       1 <0>         0.1282
     24 C24         0.2781   -4.0534   -2.4063 C.3       1 <0>         0.1282
     25 C25        -1.5102    2.6195   -0.2117 C.3       1 <0>         0.1282
     26 C26         4.8307   -2.0074   -1.5545 C.3       1 <0>         0.1282
     27 C27         6.0481    2.7418   -0.8991 C.3       1 <0>         0.1282
     28 C28         2.0701    3.7915    2.1196 C.3       1 <0>         0.1282
     29 C29        -4.5238    0.9239    0.3542 C.3       1 <0>         0.3176
     30 C30        -6.1016   -3.7370   -0.1984 C.3       1 <0>         0.3176
     31 C31        -1.8809   -3.7563   -1.3374 C.3       1 <0>         0.3176
     32 C32         3.1353   -3.4643   -0.6812 C.3       1 <0>         0.3176
     33 C33        -0.9835    4.8948    0.2943 C.3       1 <0>         0.3176
     34 C34         6.6512    0.5104   -0.2590 C.3       1 <0>         0.3176
     35 C35         4.0169    4.3077    0.7623 C.3       1 <0>         0.3176
     36 C36        -6.1541    0.5830   -2.2152 C.3       1 <0>         0.1254
     37 C37        -5.7521   -6.6865   -1.8461 C.3       1 <0>         0.1254
     38 C38         1.1257   -5.2874   -2.6922 C.3       1 <0>         0.1254
     39 C39        -1.3958    1.6265   -1.3579 C.3       1 <0>         0.1254
     40 C40         6.0927   -2.0602   -2.4093 C.3       1 <0>         0.1254
     41 C41         6.3900    3.8101   -1.9333 C.3       1 <0>         0.1254
     42 C42         1.4816    2.4538    2.5633 C.3       1 <0>         0.1254
     43 O1         -5.3224   -2.5358   -0.2895 O.3       1 <0>        -0.4088
     44 O2         -3.2811   -3.8973   -1.6022 O.3       1 <0>        -0.4088
     45 O3         -3.3471    1.5091    0.9328 O.3       1 <0>        -0.4088
     46 O4          2.1035   -2.7680   -1.3881 O.3       1 <0>        -0.4088
     47 O5          5.2941    0.0685   -0.3726 O.3       1 <0>        -0.4088
     48 O6          5.4413    4.4131    0.8556 O.3       1 <0>        -0.4088
     49 O7         -0.0629    4.5972    1.3525 O.3       1 <0>        -0.4088
     50 O8         -4.1998    0.1861   -0.8235 O.3       1 <0>        -0.4191
     51 O9         -6.2424   -4.3632   -1.4755 O.3       1 <0>        -0.4191
     52 O10        -1.0780   -4.5067   -2.2536 O.3       1 <0>        -0.4191
     53 O11         4.3805   -3.3619   -1.3937 O.3       1 <0>        -0.4191
     54 O12        -1.0507    3.8801   -0.7111 O.3       1 <0>        -0.4191
     55 O13         6.8984    1.6115   -1.1507 O.3       1 <0>        -0.4191
     56 O14         3.4535    3.5597    1.8382 O.3       1 <0>        -0.4191
     57 O15        -7.4360    0.2652    0.6951 O.3       1 <0>        -0.5890
     58 O16        -3.7806   -6.3687    0.9449 O.3       1 <0>        -0.5890
     59 O17        -0.0891   -1.5807    0.3334 O.3       1 <0>        -0.5890
     60 O18        -4.3762    4.0982    1.7123 O.3       1 <0>        -0.5890
     61 O19         4.1130   -1.0321    2.0185 O.3       1 <0>        -0.5890
     62 O20         6.5503    2.6243    2.8453 O.3       1 <0>        -0.5890
     63 O21         1.7162    5.8967   -0.8917 O.3       1 <0>        -0.5890
     64 O22        -4.1861   -0.9809    1.7847 O.3       1 <0>        -0.5744
     65 O23        -5.4254   -4.0910    2.0999 O.3       1 <0>        -0.5744
     66 O24        -1.8189   -1.8231   -2.7470 O.3       1 <0>        -0.5744
     67 O25        -2.3273    6.0847    1.9262 O.3       1 <0>        -0.5744
     68 O26         2.1910   -3.0305    1.5341 O.3       1 <0>        -0.5744
     69 O27         6.8372   -0.0973    2.0976 O.3       1 <0>        -0.5744
     70 O28         3.7330    6.3673    1.9957 O.3       1 <0>        -0.5744
     71 O29        -5.3081    1.3621   -3.0415 O.3       1 <0>        -0.5919
     72 O30        -4.8104   -7.5502   -2.4547 O.3       1 <0>        -0.5919
     73 O31         1.0973   -6.1259   -1.5522 O.3       1 <0>        -0.5919
     74 O32        -2.2375    2.0557   -2.4129 O.3       1 <0>        -0.5919
     75 O33         5.7819   -2.7039   -3.6313 O.3       1 <0>        -0.5919
     76 O34         6.2081    3.2609   -3.2257 O.3       1 <0>        -0.5919
     77 O35         1.5303    1.5614    1.4676 O.3       1 <0>        -0.5919
     78 H1         -7.0586   -1.6466   -1.0179 H         1 <0>         0.0746
     79 H2         -3.2205   -5.9013   -1.3934 H         1 <0>         0.0746
     80 H3          0.7115   -3.8441   -0.3149 H         1 <0>         0.0746
     81 H4         -3.6355    2.9829   -0.4849 H         1 <0>         0.0746
     82 H5          5.9247   -1.8055    0.3038 H         1 <0>         0.0746
     83 H6          7.2706    3.6333    0.6210 H         1 <0>         0.0746
     84 H7          1.3072    3.6977    0.0797 H         1 <0>         0.0746
     85 H8         -6.7763   -1.4560    1.5435 H         1 <0>         0.0892
     86 H9         -3.3380   -4.4045    0.8973 H         1 <0>         0.0892
     87 H10         0.2544   -1.1617   -1.6304 H         1 <0>         0.0892
     88 H11        -2.5119    3.4987    2.3077 H         1 <0>         0.0892
     89 H12         3.0161   -0.8529    0.2998 H         1 <0>         0.0892
     90 H13         5.0715    1.8147    1.7033 H         1 <0>         0.0892
     91 H14         1.4664    6.5558    1.0087 H         1 <0>         0.0892
     92 H15        -5.4315    0.5619    2.2832 H         1 <0>         0.0654
     93 H16        -6.0754   -5.6085    0.8967 H         1 <0>         0.0654
     94 H17        -2.2576   -1.7116   -0.7572 H         1 <0>         0.0654
     95 H18        -3.0272    5.5861    0.0804 H         1 <0>         0.0654
     96 H19         4.1433   -3.5460    1.2294 H         1 <0>         0.0654
     97 H20         8.0457    1.2888    1.2079 H         1 <0>         0.0654
     98 H21         4.0001    6.3183   -0.0175 H         1 <0>         0.0654
     99 H22        -4.8647   -1.1200   -2.2936 H         1 <0>         0.0972
    100 H23        -5.0300   -5.0589   -2.9777 H         1 <0>         0.0972
    101 H24         0.2828   -3.4488   -3.2904 H         1 <0>         0.0972
    102 H25        -0.8498    2.3234    0.5809 H         1 <0>         0.0972
    103 H26         4.0877   -1.5008   -2.1027 H         1 <0>         0.0972
    104 H27         5.0085    2.4404   -1.0756 H         1 <0>         0.0972
    105 H28         2.0461    4.4597    2.9757 H         1 <0>         0.0972
    106 H29        -5.2136    1.7052    0.1100 H         1 <0>         0.0680
    107 H30        -7.1163   -3.4813    0.1484 H         1 <0>         0.0680
    108 H31        -1.6780   -4.0900   -0.3115 H         1 <0>         0.0680
    109 H32         2.8503   -4.5205   -0.6557 H         1 <0>         0.0680
    110 H33        -0.6516    5.8416   -0.2107 H         1 <0>         0.0680
    111 H34         7.3210   -0.2976   -0.5530 H         1 <0>         0.0680
    112 H35         3.7620    3.8236   -0.1955 H         1 <0>         0.0680
    113 H36        -6.6544    1.2336   -1.4975 H         1 <0>         0.0430
    114 H37        -6.8969    0.0792   -2.8342 H         1 <0>         0.0430
    115 H38        -6.6938   -6.7365   -2.3915 H         1 <0>         0.0430
    116 H39        -5.9074   -6.9921   -0.8120 H         1 <0>         0.0430
    117 H40         2.1539   -4.9913   -2.8973 H         1 <0>         0.0430
    118 H41         0.7193   -5.8264   -3.5474 H         1 <0>         0.0430
    119 H42        -1.7107    0.6366   -1.0265 H         1 <0>         0.0430
    120 H43        -0.3660    1.5843   -1.7137 H         1 <0>         0.0430
    121 H44         6.8685   -2.6240   -1.8917 H         1 <0>         0.0430
    122 H45         6.4458   -1.0496   -2.6134 H         1 <0>         0.0430
    123 H46         7.4280    4.1218   -1.8172 H         1 <0>         0.0430
    124 H47         5.7318    4.6704   -1.8116 H         1 <0>         0.0430
    125 H48         0.4483    2.5936    2.8736 H         1 <0>         0.0430
    126 H49         2.0671    2.0515    3.3873 H         1 <0>         0.0430
    127 H50        -8.2147   -0.2146    0.3754 H         1 <0>         0.4068
    128 H51        -2.8642   -6.5770    0.7114 H         1 <0>         0.4068
    129 H52        -0.6545   -0.7961    0.3956 H         1 <0>         0.4068
    130 H53        -4.7981    4.3863    0.8900 H         1 <0>         0.4068
    131 H54         4.8297   -1.5981    2.3455 H         1 <0>         0.4068
    132 H55         7.4751    2.8906    2.7299 H         1 <0>         0.4068
    133 H56         2.1324    6.7348   -1.1404 H         1 <0>         0.4068
    134 H57        -4.6074   -1.5353    2.4600 H         1 <0>         0.4111
    135 H58        -6.3390   -3.8599    2.3294 H         1 <0>         0.4111
    136 H59        -1.6314   -0.8717   -2.7647 H         1 <0>         0.4111
    137 H60        -1.9260    6.8805    1.5489 H         1 <0>         0.4111
    138 H61         1.9423   -3.9666    1.5307 H         1 <0>         0.4111
    139 H62         7.4137   -0.8171    1.7964 H         1 <0>         0.4111
    140 H63         3.3820    7.2660    1.9252 H         1 <0>         0.4111
    141 H64        -5.8724    2.0091   -3.4981 H         1 <0>         0.4076
    142 H65        -5.1799   -8.4491   -2.4160 H         1 <0>         0.4076
    143 H66         1.6429   -6.9047   -1.7563 H         1 <0>         0.4076
    144 H67        -2.1473    1.4069   -3.1315 H         1 <0>         0.4076
    145 H68         6.5989   -2.7260   -4.1584 H         1 <0>         0.4076
    146 H69         6.4313    3.9579   -3.8660 H         1 <0>         0.4076
    147 H70         1.1523    0.7166    1.7679 H         1 <0>         0.4076
@<TRIPOS>BOND
     1    1    8 1
     2    1   22 1
     3    1   43 1
     4    2    9 1
     5    2   23 1
     6    2   44 1
     7    3   10 1
     8    3   24 1
     9    3   46 1
    10    4   11 1
    11    4   25 1
    12    4   45 1
    13    5   12 1
    14    5   26 1
    15    5   47 1
    16    6   13 1
    17    6   27 1
    18    6   48 1
    19    7   14 1
    20    7   28 1
    21    7   49 1
    22    8   15 1
    23    8   57 1
    24    9   16 1
    25    9   58 1
    26   10   17 1
    27   10   59 1
    28   11   18 1
    29   11   60 1
    30   12   19 1
    31   12   61 1
    32   13   20 1
    33   13   62 1
    34   14   21 1
    35   14   63 1
    36   15   29 1
    37   15   64 1
    38   16   30 1
    39   16   65 1
    40   17   31 1
    41   17   66 1
    42   18   33 1
    43   18   67 1
    44   19   32 1
    45   19   68 1
    46   20   34 1
    47   20   69 1
    48   21   35 1
    49   21   70 1
    50   22   36 1
    51   22   50 1
    52   23   37 1
    53   23   51 1
    54   24   38 1
    55   24   52 1
    56   25   39 1
    57   25   54 1
    58   26   40 1
    59   26   53 1
    60   27   41 1
    61   27   55 1
    62   28   42 1
    63   28   56 1
    64   29   45 1
    65   29   50 1
    66   30   43 1
    67   30   51 1
    68   31   44 1
    69   31   52 1
    70   32   46 1
    71   32   53 1
    72   33   49 1
    73   33   54 1
    74   34   47 1
    75   34   55 1
    76   35   48 1
    77   35   56 1
    78   36   71 1
    79   37   72 1
    80   38   73 1
    81   39   74 1
    82   40   75 1
    83   41   76 1
    84   42   77 1
    85    1   78 1
    86    2   79 1
    87    3   80 1
    88    4   81 1
    89    5   82 1
    90    6   83 1
    91    7   84 1
    92    8   85 1
    93    9   86 1
    94   10   87 1
    95   11   88 1
    96   12   89 1
    97   13   90 1
    98   14   91 1
    99   15   92 1
   100   16   93 1
   101   17   94 1
   102   18   95 1
   103   19   96 1
   104   20   97 1
   105   21   98 1
   106   22   99 1
   107   23  100 1
   108   24  101 1
   109   25  102 1
   110   26  103 1
   111   27  104 1
   112   28  105 1
   113   29  106 1
   114   30  107 1
   115   31  108 1
   116   32  109 1
   117   33  110 1
   118   34  111 1
   119   35  112 1
   120   36  113 1
   121   36  114 1
   122   37  115 1
   123   37  116 1
   124   38  117 1
   125   38  118 1
   126   39  119 1
   127   39  120 1
   128   40  121 1
   129   40  122 1
   130   41  123 1
   131   41  124 1
   132   42  125 1
   133   42  126 1
   134   57  127 1
   135   58  128 1
   136   59  129 1
   137   60  130 1
   138   61  131 1
   139   62  132 1
   140   63  133 1
   141   64  134 1
   142   65  135 1
   143   66  136 1
   144   67  137 1
   145   68  138 1
   146   69  139 1
   147   70  140 1
   148   71  141 1
   149   72  142 1
   150   73  143 1
   151   74  144 1
   152   75  145 1
   153   76  146 1
   154   77  147 1
@<TRIPOS>MOLECULE
*****
  147   154     0     0     0
SMALL
USER_CHARGES

@<TRIPOS>ATOM
      1 C1         -6.1085   -1.3572   -0.5321 C.3       1 <0>         0.1012
      2 C2         -3.8641   -5.1224   -1.1328 C.3       1 <0>         0.1020
      3 C3          0.7697   -3.2416   -1.1943 C.3       1 <0>         0.1020
      4 C4         -2.9459    2.7391    0.3171 C.3       1 <0>         0.1020
      5 C5          5.0698   -1.3311   -0.1904 C.3       1 <0>         0.1020
      6 C6          6.2344    3.2650    0.5387 C.3       1 <0>         0.1020
      7 C7          1.2988    4.4037    0.9387 C.3       1 <0>         0.1020
      8 C8         -6.3966   -0.6989    0.8274 C.3       1 <0>         0.1044
      9 C9         -4.0502   -5.0766    0.3961 C.3       1 <0>         0.1044
     10 C10        -0.1170   -1.9909   -1.0350 C.3       1 <0>         0.1044
     11 C11        -3.0094    3.8370    1.3885 C.3       1 <0>         0.1044
     12 C12         3.8192   -1.4713    0.6920 C.3       1 <0>         0.1044
     13 C13         6.1077    2.1412    1.5772 C.3       1 <0>         0.1044
     14 C14         1.9512    5.7335    0.5104 C.3       1 <0>         0.1044
     15 C15        -5.1532   -0.0058    1.3958 C.3       1 <0>         0.0999
     16 C16        -5.4699   -4.6919    0.8070 C.3       1 <0>         0.0999
     17 C17        -1.5728   -2.2625   -1.4091 C.3       1 <0>         0.0999
     18 C18        -2.3840    5.1306    0.8706 C.3       1 <0>         0.0999
     19 C19         3.3610   -2.9261    0.7368 C.3       1 <0>         0.0999
     20 C20         6.9916    0.9636    1.1659 C.3       1 <0>         0.0999
     21 C21         3.4648    5.7379    0.7409 C.3       1 <0>         0.0999
     22 C22        -5.3009   -0.4481   -1.4792 C.3       1 <0>         0.1282
     23 C23        -5.2019   -5.2621   -1.8898 C.3       1 <0>         0.1282
     24 C24         0.2781   -4.0534   -2.4063 C.3       1 <0>         0.1282
     25 C25        -1.5102    2.6195   -0.2117 C.3       1 <0>         0.1282
     26 C26         4.8307   -2.0074   -1.5545 C.3       1 <0>         0.1282
     27 C27         6.0481    2.7418   -0.8991 C.3       1 <0>         0.1282
     28 C28         2.0701    3.7915    2.1196 C.3       1 <0>         0.1282
     29 C29        -4.5238    0.9239    0.3542 C.3       1 <0>         0.3176
     30 C30        -6.1016   -3.7370   -0.1984 C.3       1 <0>         0.3176
     31 C31        -1.8809   -3.7563   -1.3374 C.3       1 <0>         0.3176
     32 C32         3.1353   -3.4643   -0.6812 C.3       1 <0>         0.3176
     33 C33        -0.9835    4.8948    0.2943 C.3       1 <0>         0.3176
     34 C34         6.6512    0.5104   -0.2590 C.3       1 <0>         0.3176
     35 C35         4.0169    4.3077    0.7623 C.3       1 <0>         0.3176
     36 C36        -6.1541    0.5830   -2.2152 C.3       1 <0>         0.1254
     37 C37        -5.7521   -6.6865   -1.8461 C.3       1 <0>         0.1254
     38 C38         1.1257   -5.2874   -2.6922 C.3       1 <0>         0.1254
     39 C39        -1.3958    1.6265   -1.3579 C.3       1 <0>         0.1254
     40 C40         6.0927   -2.0602   -2.4093 C.3       1 <0>         0.1254
     41 C41         6.3900    3.8101   -1.9333 C.3       1 <0>         0.1254
     42 C42         1.4816    2.4538    2.5633 C.3       1 <0>         0.1254
     43 O1         -5.3224   -2.5358   -0.2895 O.3       1 <0>        -0.4088
     44 O2         -3.2811   -3.8973   -1.6022 O.3       1 <0>        -0.4088
     45 O3         -3.3471    1.5091    0.9328 O.3       1 <0>        -0.4088
     46 O4          2.1035   -2.7680   -1.3881 O.3       1 <0>        -0.4088
     47 O5          5.2941    0.0685   -0.3726 O.3       1 <0>        -0.4088
     48 O6          5.4413    4.4131    0.8556 O.3       1 <0>        -0.4088
     49 O7         -0.0629    4.5972    1.3525 O.3       1 <0>        -0.4088
     50 O8         -4.1998    0.1861   -0.8235 O.3       1 <0>        -0.4191
     51 O9         -6.2424   -4.3632   -1.4755 O.3       1 <0>        -0.4191
     52 O10        -1.0780   -4.5067   -2.2536 O.3       1 <0>        -0.4191
     53 O11         4.3805   -3.3619   -1.3937 O.3       1 <0>        -0.4191
     54 O12        -1.0507    3.8801   -0.7111 O.3       1 <0>        -0.4191
     55 O13         6.8984    1.6115   -1.1507 O.3       1 <0>        -0.4191
     56 O14         3.4535    3.5597    1.8382 O.3       1 <0>        -0.4191
     57 O15        -7.4360    0.2652    0.6951 O.3       1 <0>        -0.5890
     58 O16        -3.7806   -6.3687    0.9449 O.3       1 <0>        -0.5890
     59 O17        -0.0891   -1.5807    0.3334 O.3       1 <0>        -0.5890
     60 O18        -4.3762    4.0982    1.7123 O.3       1 <0>        -0.5890
     61 O19         4.1130   -1.0321    2.0185 O.3       1 <0>        -0.5890
     62 O20         6.5503    2.6243    2.8453 O.3       1 <0>        -0.5890
     63 O21         1.7162    5.8967   -0.8917 O.3       1 <0>        -0.5890
     64 O22        -4.1861   -0.9809    1.7847 O.3       1 <0>        -0.5744
     65 O23        -5.4254   -4.0910    2.0999 O.3       1 <0>        -0.5744
     66 O24        -1.8189   -1.8231   -2.7470 O.3       1 <0>        -0.5744
     67 O25        -2.3273    6.0847    1.9262 O.3       1 <0>        -0.5744
     68 O26         2.1910   -3.0305    1.5341 O.3       1 <0>        -0.5744
     69 O27         6.8372   -0.0973    2.0976 O.3       1 <0>        -0.5744
     70 O28         3.7330    6.3673    1.9957 O.3       1 <0>        -0.5744
     71 O29        -5.3081    1.3621   -3.0415 O.3       1 <0>        -0.5919
     72 O30        -6.6886   -6.8384   -2.8964 O.3       1 <0>        -0.5919
     73 O31         1.0973   -6.1259   -1.5522 O.3       1 <0>        -0.5919
     74 O32        -0.0473    1.5877   -1.7889 O.3       1 <0>        -0.5919
     75 O33         7.0825   -2.7882   -1.7061 O.3       1 <0>        -0.5919
     76 O34         7.7385    4.2006   -1.7493 O.3       1 <0>        -0.5919
     77 O35         1.5303    1.5614    1.4676 O.3       1 <0>        -0.5919
     78 H1         -7.0586   -1.6466   -1.0179 H         1 <0>         0.0746
     79 H2         -3.2205   -5.9013   -1.3934 H         1 <0>         0.0746
     80 H3          0.7115   -3.8441   -0.3149 H         1 <0>         0.0746
     81 H4         -3.6355    2.9829   -0.4849 H         1 <0>         0.0746
     82 H5          5.9247   -1.8055    0.3038 H         1 <0>         0.0746
     83 H6          7.2706    3.6333    0.6210 H         1 <0>         0.0746
     84 H7          1.3072    3.6977    0.0797 H         1 <0>         0.0746
     85 H8         -6.7763   -1.4560    1.5435 H         1 <0>         0.0892
     86 H9         -3.3380   -4.4045    0.8973 H         1 <0>         0.0892
     87 H10         0.2544   -1.1617   -1.6304 H         1 <0>         0.0892
     88 H11        -2.5119    3.4987    2.3077 H         1 <0>         0.0892
     89 H12         3.0161   -0.8529    0.2998 H         1 <0>         0.0892
     90 H13         5.0715    1.8147    1.7033 H         1 <0>         0.0892
     91 H14         1.4664    6.5558    1.0087 H         1 <0>         0.0892
     92 H15        -5.4315    0.5619    2.2832 H         1 <0>         0.0654
     93 H16        -6.0754   -5.6085    0.8967 H         1 <0>         0.0654
     94 H17        -2.2576   -1.7116   -0.7572 H         1 <0>         0.0654
     95 H18        -3.0272    5.5861    0.0804 H         1 <0>         0.0654
     96 H19         4.1433   -3.5460    1.2294 H         1 <0>         0.0654
     97 H20         8.0457    1.2888    1.2079 H         1 <0>         0.0654
     98 H21         4.0001    6.3183   -0.0175 H         1 <0>         0.0654
     99 H22        -4.8647   -1.1200   -2.2936 H         1 <0>         0.0972
    100 H23        -5.0300   -5.0589   -2.9777 H         1 <0>         0.0972
    101 H24         0.2828   -3.4488   -3.2904 H         1 <0>         0.0972
    102 H25        -0.8498    2.3234    0.5809 H         1 <0>         0.0972
    103 H26         4.0877   -1.5008   -2.1027 H         1 <0>         0.0972
    104 H27         5.0085    2.4404   -1.0756 H         1 <0>         0.0972
    105 H28         2.0461    4.4597    2.9757 H         1 <0>         0.0972
    106 H29        -5.2136    1.7052    0.1100 H         1 <0>         0.0680
    107 H30        -7.1163   -3.4813    0.1484 H         1 <0>         0.0680
    108 H31        -1.6780   -4.0900   -0.3115 H         1 <0>         0.0680
    109 H32         2.8503   -4.5205   -0.6557 H         1 <0>         0.0680
    110 H33        -0.6516    5.8416   -0.2107 H         1 <0>         0.0680
    111 H34         7.3210   -0.2976   -0.5530 H         1 <0>         0.0680
    112 H35         3.7620    3.8236   -0.1955 H         1 <0>         0.0680
    113 H36        -6.6544    1.2336   -1.4975 H         1 <0>         0.0430
    114 H37        -6.8969    0.0792   -2.8342 H         1 <0>         0.0430
    115 H38        -6.2472   -6.8630   -0.8919 H         1 <0>         0.0430
    116 H39        -4.9407   -7.4012   -1.9789 H         1 <0>         0.0430
    117 H40         2.1539   -4.9913   -2.8973 H         1 <0>         0.0430
    118 H41         0.7193   -5.8264   -3.5474 H         1 <0>         0.0430
    119 H42        -2.0298    1.9402   -2.1877 H         1 <0>         0.0430
    120 H43        -1.6950    0.6332   -1.0223 H         1 <0>         0.0430
    121 H44         6.4549   -1.0501   -2.5995 H         1 <0>         0.0430
    122 H45         5.8807   -2.5597   -3.3544 H         1 <0>         0.0430
    123 H46         5.7426    4.6770   -1.8008 H         1 <0>         0.0430
    124 H47         6.2653    3.4083   -2.9389 H         1 <0>         0.0430
    125 H48         0.4483    2.5936    2.8736 H         1 <0>         0.0430
    126 H49         2.0671    2.0515    3.3873 H         1 <0>         0.0430
    127 H50        -8.2147   -0.2146    0.3754 H         1 <0>         0.4068
    128 H51        -2.8642   -6.5770    0.7114 H         1 <0>         0.4068
    129 H52        -0.6545   -0.7961    0.3956 H         1 <0>         0.4068
    130 H53        -4.7981    4.3863    0.8900 H         1 <0>         0.4068
    131 H54         4.8297   -1.5981    2.3455 H         1 <0>         0.4068
    132 H55         7.4751    2.8906    2.7299 H         1 <0>         0.4068
    133 H56         2.1324    6.7348   -1.1404 H         1 <0>         0.4068
    134 H57        -4.6074   -1.5353    2.4600 H         1 <0>         0.4111
    135 H58        -6.3390   -3.8599    2.3294 H         1 <0>         0.4111
    136 H59        -1.6314   -0.8717   -2.7647 H         1 <0>         0.4111
    137 H60        -1.9260    6.8805    1.5489 H         1 <0>         0.4111
    138 H61         1.9423   -3.9666    1.5307 H         1 <0>         0.4111
    139 H62         7.4137   -0.8171    1.7964 H         1 <0>         0.4111
    140 H63         3.3820    7.2660    1.9252 H         1 <0>         0.4111
    141 H64        -5.8724    2.0091   -3.4981 H         1 <0>         0.4076
    142 H65        -7.0252   -7.7498   -2.8499 H         1 <0>         0.4076
    143 H66         1.6429   -6.9047   -1.7563 H         1 <0>         0.4076
    144 H67         0.0002    0.9480   -2.5197 H         1 <0>         0.4076
    145 H68         7.8756   -2.8088   -2.2685 H         1 <0>         0.4076
    146 H69         7.9327    4.8799   -2.4175 H         1 <0>         0.4076
    147 H70         1.1523    0.7166    1.7679 H         1 <0>         0.4076
@<TRIPOS>BOND
     1    1    8 1
     2    1   22 1
     3    1   43 1
     4    2    9 1
     5    2   23 1
     6    2   44 1
     7    3   10 1
     8    3   24 1
     9    3   46 1
    10    4   11 1
    11    4   25 1
    12    4   45 1
    13    5   12 1
    14    5   26 1
    15    5   47 1
    16    6   13 1
    17    6   27 1
    18    6   48 1
    19    7   14 1
    20    7   28 1
    21    7   49 1
    22    8   15 1
    23    8   57 1
    24    9   16 1
    25    9   58 1
    26   10   17 1
    27   10   59 1
    28   11   18 1
    29   11   60 1
    30   12   19 1
    31   12   61 1
    32   13   20 1
    33   13   62 1
    34   14   21 1
    35   14   63 1
    36   15   29 1
    37   15   64 1
    38   16   30 1
    39   16   65 1
    40   17   31 1
    41   17   66 1
    42   18   33 1
    43   18   67 1
    44   19   32 1
    45   19   68 1
    46   20   34 1
    47   20   69 1
    48   21   35 1
    49   21   70 1
    50   22   36 1
    51   22   50 1
    52   23   37 1
    53   23   51 1
    54   24   38 1
    55   24   52 1
    56   25   39 1
    57   25   54 1
    58   26   40 1
    59   26   53 1
    60   27   41 1
    61   27   55 1
    62   28   42 1
    63   28   56 1
    64   29   45 1
    65   29   50 1
    66   30   43 1
    67   30   51 1
    68   31   44 1
    69   31   52 1
    70   32   46 1
    71   32   53 1
    72   33   49 1
    73   33   54 1
    74   34   47 1
    75   34   55 1
    76   35   48 1
    77   35   56 1
    78   36   71 1
    79   37   72 1
    80   38   73 1
    81   39   74 1
    82   40   75 1
    83   41   76 1
    84   42   77 1
    85    1   78 1
    86    2   79 1
    87    3   80 1
    88    4   81 1
    89    5   82 1
    90    6   83 1
    91    7   84 1
    92    8   85 1
    93    9   86 1
    94   10   87 1
    95   11   88 1
    96   12   89 1
    97   13   90 1
    98   14   91 1
    99   15   92 1
   100   16   93 1
   101   17   94 1
   102   18   95 1
   103   19   96 1
   104   20   97 1
   105   21   98 1
   106   22   99 1
   107   23  100 1
   108   24  101 1
   109   25  102 1
   110   26  103 1
   111   27  104 1
   112   28  105 1
   113   29  106 1
   114   30  107 1
   115   31  108 1
   116   32  109 1
   117   33  110 1
   118   34  111 1
   119   35  112 1
   120   36  113 1
   121   36  114 1
   122   37  115 1
   123   37  116 1
   124   38  117 1
   125   38  118 1
   126   39  119 1
   127   39  120 1
   128   40  121 1
   129   40  122 1
   130   41  123 1
   131   41  124 1
   132   42  125 1
   133   42  126 1
   134   57  127 1
   135   58  128 1
   136   59  129 1
   137   60  130 1
   138   61  131 1
   139   62  132 1
   140   63  133 1
   141   64  134 1
   142   65  135 1
   143   66  136 1
   144   67  137 1
   145   68  138 1
   146   69  139 1
   147   70  140 1
   148   71  141 1
   149   72  142 1
   150   73  143 1
   151   74  144 1
   152   75  145 1
   153   76  146 1
   154   77  147 1
@<TRIPOS>MOLECULE
*****
  147   154     0     0     0
SMALL
USER_CHARGES

@<TRIPOS>ATOM
      1 C1          4.9996   -1.4999   -0.5934 C.3       1 <0>         0.1012
      2 C2          6.1808    2.9564   -0.8320 C.3       1 <0>         0.1020
      3 C3          1.3239    4.3678   -0.1931 C.3       1 <0>         0.1020
      4 C4          1.4228   -3.9740    0.7550 C.3       1 <0>         0.1020
      5 C5         -3.4556    2.8479   -0.3793 C.3       1 <0>         0.1020
      6 C6         -6.7592   -0.5955   -0.9801 C.3       1 <0>         0.1020
      7 C7         -3.5329   -3.8072    1.0546 C.3       1 <0>         0.1020
      8 C8          5.5426   -2.7913    0.0489 C.3       1 <0>         0.1044
      9 C9          6.0654    2.5408    0.6416 C.3       1 <0>         0.1044
     10 C10         1.6423    4.5815   -1.6844 C.3       1 <0>         0.1044
     11 C11         0.6251   -4.9918   -0.0917 C.3       1 <0>         0.1044
     12 C12        -3.5762    4.1656    0.3984 C.3       1 <0>         0.1044
     13 C13        -6.9845    0.2852    0.2571 C.3       1 <0>         0.1044
     14 C14        -4.7039   -4.7721    0.8404 C.3       1 <0>         0.1044
     15 C15         4.9232   -4.0271   -0.6085 C.3       1 <0>         0.0999
     16 C16         6.9501    1.3240    0.9099 C.3       1 <0>         0.0999
     17 C17         3.1493    4.6984   -1.9461 C.3       1 <0>         0.0999
     18 C18        -0.7283   -5.3339    0.5396 C.3       1 <0>         0.0999
     19 C19        -2.3149    5.0291    0.2680 C.3       1 <0>         0.0999
     20 C20        -6.9653    1.7605   -0.1429 C.3       1 <0>         0.0999
     21 C21        -5.8272   -4.0921    0.0354 C.3       1 <0>         0.0999
     22 C22         3.4614   -1.5658   -0.6234 C.3       1 <0>         0.1282
     23 C23         5.9961    1.7559   -1.7768 C.3       1 <0>         0.1282
     24 C24         2.4084    5.0091    0.6828 C.3       1 <0>         0.1282
     25 C25         1.0745   -4.1188    2.2500 C.3       1 <0>         0.1282
     26 C26        -2.1728    2.1026    0.0583 C.3       1 <0>         0.1282
     27 C27        -5.5295   -0.1289   -1.7847 C.3       1 <0>         0.1282
     28 C28        -4.0601   -2.5311    1.7490 C.3       1 <0>         0.1282
     29 C29         3.3968   -3.9522   -0.6719 C.3       1 <0>         0.3176
     30 C30         6.6638    0.1925   -0.0819 C.3       1 <0>         0.3176
     31 C31         3.9474    3.9516   -0.8722 C.3       1 <0>         0.3176
     32 C32        -1.0879    4.2192   -0.1680 C.3       1 <0>         0.3176
     33 C33        -1.1981   -4.1759    1.4229 C.3       1 <0>         0.3176
     34 C34        -5.6953    2.1067   -0.9230 C.3       1 <0>         0.3176
     35 C35        -5.6209   -2.5708   -0.0652 C.3       1 <0>         0.3176
     36 C36         2.8291   -0.3689   -1.3247 C.3       1 <0>         0.1254
     37 C37         6.3117    2.1242   -3.2240 C.3       1 <0>         0.1254
     38 C38         2.1275    4.8237    2.1727 C.3       1 <0>         0.1254
     39 C39         1.8050   -3.0906    3.1121 C.3       1 <0>         0.1254
     40 C40        -1.6354    1.1993   -1.0497 C.3       1 <0>         0.1254
     41 C41        -5.4197   -0.8585   -3.1211 C.3       1 <0>         0.1254
     42 C42        -3.0890   -1.3603    1.6605 C.3       1 <0>         0.1254
     43 O1          5.3560   -0.3389    0.1686 O.3       1 <0>        -0.4088
     44 O2          5.3363    4.0529   -1.2021 O.3       1 <0>        -0.4088
     45 O3          2.8444   -4.1352    0.6354 O.3       1 <0>        -0.4088
     46 O4          0.0779    4.9865    0.1437 O.3       1 <0>        -0.4088
     47 O5         -4.5598    1.9885   -0.0583 O.3       1 <0>        -0.4088
     48 O6         -6.7865   -1.9915   -0.6553 O.3       1 <0>        -0.4088
     49 O7         -2.5357   -4.4289    1.8751 O.3       1 <0>        -0.4088
     50 O8          3.0119   -2.7351   -1.3128 O.3       1 <0>        -0.4191
     51 O9          6.8575    0.6707   -1.4170 O.3       1 <0>        -0.4191
     52 O10         3.7075    4.4705    0.4377 O.3       1 <0>        -0.4191
     53 O11        -1.1216    2.9652    0.5074 O.3       1 <0>        -0.4191
     54 O12        -0.3225   -3.9810    2.5353 O.3       1 <0>        -0.4191
     55 O13        -5.5997    1.2729   -2.0826 O.3       1 <0>        -0.4191
     56 O14        -5.3285   -2.0891    1.2425 O.3       1 <0>        -0.4191
     57 O15         6.9551   -2.8682   -0.1449 O.3       1 <0>        -0.5890
     58 O16         6.5066    3.6299    1.4527 O.3       1 <0>        -0.5890
     59 O17         1.1428    3.4452   -2.3946 O.3       1 <0>        -0.5890
     60 O18         0.3220   -4.4033   -1.3631 O.3       1 <0>        -0.5890
     61 O19        -4.6843    4.9249   -0.0818 O.3       1 <0>        -0.5890
     62 O20        -8.2494   -0.0306    0.8404 O.3       1 <0>        -0.5890
     63 O21        -4.2360   -5.9080    0.1134 O.3       1 <0>        -0.5890
     64 O22         5.3308   -5.1929    0.1015 O.3       1 <0>        -0.5744
     65 O23         6.7557    0.8630    2.2435 O.3       1 <0>        -0.5744
     66 O24         3.5346    6.0740   -1.9236 O.3       1 <0>        -0.5744
     67 O25        -0.6104   -6.5045    1.3476 O.3       1 <0>        -0.5744
     68 O26        -2.0845    5.6043    1.5603 O.3       1 <0>        -0.5744
     69 O27        -7.0427    2.5847    1.0159 O.3       1 <0>        -0.5744
     70 O28        -7.0677   -4.3616    0.6963 O.3       1 <0>        -0.5744
     71 O29         3.3046   -0.3237   -2.6579 O.3       1 <0>        -0.5919
     72 O30         6.1316    0.9743   -4.0292 O.3       1 <0>        -0.5919
     73 O31         2.0704    3.4369    2.4499 O.3       1 <0>        -0.5919
     74 O32         1.4381   -1.7939    2.6767 O.3       1 <0>        -0.5919
     75 O33        -0.7749    0.2371   -0.4683 O.3       1 <0>        -0.5919
     76 O34        -4.2797   -0.3738   -3.8070 O.3       1 <0>        -0.5919
     77 O35        -2.0977   -1.5288    2.6546 O.3       1 <0>        -0.5919
     78 H1          5.3695   -1.4101   -1.6287 H         1 <0>         0.0746
     79 H2          7.2130    3.3188   -0.9714 H         1 <0>         0.0746
     80 H3          1.2799    3.3180    0.0413 H         1 <0>         0.0746
     81 H4          1.1610   -2.9501    0.4292 H         1 <0>         0.0746
     82 H5         -3.4001    3.0341   -1.4527 H         1 <0>         0.0746
     83 H6         -7.6463   -0.4532   -1.6111 H         1 <0>         0.0746
     84 H7         -3.0873   -3.5508    0.0763 H         1 <0>         0.0746
     85 H8          5.3744   -2.7923    1.1281 H         1 <0>         0.0892
     86 H9          5.0453    2.3298    0.9501 H         1 <0>         0.0892
     87 H10         1.1395    5.4577   -2.0749 H         1 <0>         0.0892
     88 H11         1.2139   -5.8896   -0.2800 H         1 <0>         0.0892
     89 H12        -3.7522    3.9613    1.4591 H         1 <0>         0.0892
     90 H13        -6.2252    0.0943    1.0326 H         1 <0>         0.0892
     91 H14        -5.0665   -5.1255    1.7936 H         1 <0>         0.0892
     92 H15         5.3328   -4.1168   -1.6321 H         1 <0>         0.0654
     93 H16         8.0118    1.6303    0.8260 H         1 <0>         0.0654
     94 H17         3.4052    4.3061   -2.9360 H         1 <0>         0.0654
     95 H18        -1.4882   -5.5440   -0.2241 H         1 <0>         0.0654
     96 H19        -2.4857    5.8578   -0.4232 H         1 <0>         0.0654
     97 H20        -7.8488    1.9782   -0.7587 H         1 <0>         0.0654
     98 H21        -5.9223   -4.5105   -0.9739 H         1 <0>         0.0654
     99 H22         3.0736   -1.5862    0.4085 H         1 <0>         0.0972
    100 H23         4.9765    1.3984   -1.7558 H         1 <0>         0.0972
    101 H24         2.4751    6.0556    0.4983 H         1 <0>         0.0972
    102 H25         1.3741   -5.1105    2.5937 H         1 <0>         0.0972
    103 H26        -2.4048    1.4540    0.8903 H         1 <0>         0.0972
    104 H27        -4.6009   -0.3215   -1.2352 H         1 <0>         0.0972
    105 H28        -4.2290   -2.7360    2.8135 H         1 <0>         0.0972
    106 H29         3.0515   -4.7859   -1.3026 H         1 <0>         0.0680
    107 H30         7.4186   -0.5993    0.0891 H         1 <0>         0.0680
    108 H31         3.6524    2.8945   -0.9032 H         1 <0>         0.0680
    109 H32        -1.0986    4.0643   -1.2385 H         1 <0>         0.0680
    110 H33        -1.2018   -3.2362    0.8252 H         1 <0>         0.0680
    111 H34        -5.7676    3.1468   -1.2665 H         1 <0>         0.0680
    112 H35        -4.7502   -2.3926   -0.7189 H         1 <0>         0.0680
    113 H36         3.1065    0.5527   -0.8124 H         1 <0>         0.0430
    114 H37         1.7437   -0.4720   -1.3332 H         1 <0>         0.0430
    115 H38         7.3442    2.4628   -3.3030 H         1 <0>         0.0430
    116 H39         5.6381    2.9110   -3.5613 H         1 <0>         0.0430
    117 H40         1.1736    5.2832    2.4300 H         1 <0>         0.0430
    118 H41         2.9256    5.2770    2.7598 H         1 <0>         0.0430
    119 H42         2.8832   -3.2139    3.0063 H         1 <0>         0.0430
    120 H43         1.5224   -3.2123    4.1580 H         1 <0>         0.0430
    121 H44        -1.0768    1.7920   -1.7739 H         1 <0>         0.0430
    122 H45        -2.4607    0.6911   -1.5479 H         1 <0>         0.0430
    123 H46        -6.3091   -0.6697   -3.7223 H         1 <0>         0.0430
    124 H47        -5.3103   -1.9299   -2.9526 H         1 <0>         0.0430
    125 H48        -3.6231   -0.4282    1.8329 H         1 <0>         0.0430
    126 H49        -2.6214   -1.3458    0.6783 H         1 <0>         0.0430
    127 H50         7.0997   -2.8717   -1.1030 H         1 <0>         0.4068
    128 H51         7.4265    3.7995    1.2022 H         1 <0>         0.4068
    129 H52         1.3501    3.5938   -3.3295 H         1 <0>         0.4068
    130 H53        -0.1748   -5.0707   -1.8579 H         1 <0>         0.4068
    131 H54        -4.5148    5.0993   -1.0208 H         1 <0>         0.4068
    132 H55        -8.9170    0.1479    0.1609 H         1 <0>         0.4068
    133 H56        -3.8983   -5.5703   -0.7289 H         1 <0>         0.4068
    134 H57         4.9183   -5.9483   -0.3459 H         1 <0>         0.4111
    135 H58         7.3372    0.0952    2.3586 H         1 <0>         0.4111
    136 H59         3.0278    6.5148   -2.6233 H         1 <0>         0.4111
    137 H60        -0.3183   -7.2122    0.7555 H         1 <0>         0.4111
    138 H61        -2.8715    6.1289    1.7686 H         1 <0>         0.4111
    139 H62        -7.0268    3.5033    0.7046 H         1 <0>         0.4111
    140 H63        -7.1632   -5.3243    0.7049 H         1 <0>         0.4111
    141 H64         2.8886    0.4454   -3.0832 H         1 <0>         0.4076
    142 H65         6.3374    1.2309   -4.9445 H         1 <0>         0.4076
    143 H66         1.8911    3.3425    3.4012 H         1 <0>         0.4076
    144 H67         1.9143   -1.1590    3.2386 H         1 <0>         0.4076
    145 H68        -0.4457   -0.3251   -1.1903 H         1 <0>         0.4076
    146 H69        -4.2307   -0.8517   -4.6525 H         1 <0>         0.4076
    147 H70        -1.4880   -0.7739    2.5834 H         1 <0>         0.4076
@<TRIPOS>BOND
     1    1    8 1
     2    1   22 1
     3    1   43 1
     4    2    9 1
     5    2   23 1
     6    2   44 1
     7    3   10 1
     8    3   24 1
     9    3   46 1
    10    4   11 1
    11    4   25 1
    12    4   45 1
    13    5   12 1
    14    5   26 1
    15    5   47 1
    16    6   13 1
    17    6   27 1
    18    6   48 1
    19    7   14 1
    20    7   28 1
    21    7   49 1
    22    8   15 1
    23    8   57 1
    24    9   16 1
    25    9   58 1
    26   10   17 1
    27   10   59 1
    28   11   18 1
    29   11   60 1
    30   12   19 1
    31   12   61 1
    32   13   20 1
    33   13   62 1
    34   14   21 1
    35   14   63 1
    36   15   29 1
    37   15   64 1
    38   16   30 1
    39   16   65 1
    40   17   31 1
    41   17   66 1
    42   18   33 1
    43   18   67 1
    44   19   32 1
    45   19   68 1
    46   20   34 1
    47   20   69 1
    48   21   35 1
    49   21   70 1
    50   22   36 1
    51   22   50 1
    52   23   37 1
    53   23   51 1
    54   24   38 1
    55   24   52 1
    56   25   39 1
    57   25   54 1
    58   26   40 1
    59   26   53 1
    60   27   41 1
    61   27   55 1
    62   28   42 1
    63   28   56 1
    64   29   45 1
    65   29   50 1
    66   30   43 1
    67   30   51 1
    68   31   44 1
    69   31   52 1
    70   32   46 1
    71   32   53 1
    72   33   49 1
    73   33   54 1
    74   34   47 1
    75   34   55 1
    76   35   48 1
    77   35   56 1
    78   36   71 1
    79   37   72 1
    80   38   73 1
    81   39   74 1
    82   40   75 1
    83   41   76 1
    84   42   77 1
    85    1   78 1
    86    2   79 1
    87    3   80 1
    88    4   81 1
    89    5   82 1
    90    6   83 1
    91    7   84 1
    92    8   85 1
    93    9   86 1
    94   10   87 1
    95   11   88 1
    96   12   89 1
    97   13   90 1
    98   14   91 1
    99   15   92 1
   100   16   93 1
   101   17   94 1
   102   18   95 1
   103   19   96 1
   104   20   97 1
   105   21   98 1
   106   22   99 1
   107   23  100 1
   108   24  101 1
   109   25  102 1
   110   26  103 1
   111   27  104 1
   112   28  105 1
   113   29  106 1
   114   30  107 1
   115   31  108 1
   116   32  109 1
   117   33  110 1
   118   34  111 1
   119   35  112 1
   120   36  113 1
   121   36  114 1
   122   37  115 1
   123   37  116 1
   124   38  117 1
   125   38  118 1
   126   39  119 1
   127   39  120 1
   128   40  121 1
   129   40  122 1
   130   41  123 1
   131   41  124 1
   132   42  125 1
   133   42  126 1
   134   57  127 1
   135   58  128 1
   136   59  129 1
   137   60  130 1
   138   61  131 1
   139   62  132 1
   140   63  133 1
   141   64  134 1
   142   65  135 1
   143   66  136 1
   144   67  137 1
   145   68  138 1
   146   69  139 1
   147   70  140 1
   148   71  141 1
   149   72  142 1
   150   73  143 1
   151   74  144 1
   152   75  145 1
   153   76  146 1
   154   77  147 1
@<TRIPOS>MOLECULE
*****
  147   154     0     0     0
SMALL
USER_CHARGES

@<TRIPOS>ATOM
      1 C1         -6.1085   -1.3572   -0.5321 C.3       1 <0>         0.1012
      2 C2         -3.8641   -5.1224   -1.1328 C.3       1 <0>         0.1020
      3 C3          0.7697   -3.2416   -1.1943 C.3       1 <0>         0.1020
      4 C4         -2.9459    2.7391    0.3171 C.3       1 <0>         0.1020
      5 C5          5.0698   -1.3311   -0.1904 C.3       1 <0>         0.1020
      6 C6          6.2344    3.2650    0.5387 C.3       1 <0>         0.1020
      7 C7          1.2988    4.4037    0.9387 C.3       1 <0>         0.1020
      8 C8         -6.3966   -0.6989    0.8274 C.3       1 <0>         0.1044
      9 C9         -4.0502   -5.0766    0.3961 C.3       1 <0>         0.1044
     10 C10        -0.1170   -1.9909   -1.0350 C.3       1 <0>         0.1044
     11 C11        -3.0094    3.8370    1.3885 C.3       1 <0>         0.1044
     12 C12         3.8192   -1.4713    0.6920 C.3       1 <0>         0.1044
     13 C13         6.1077    2.1412    1.5772 C.3       1 <0>         0.1044
     14 C14         1.9512    5.7335    0.5104 C.3       1 <0>         0.1044
     15 C15        -5.1532   -0.0058    1.3958 C.3       1 <0>         0.0999
     16 C16        -5.4699   -4.6919    0.8070 C.3       1 <0>         0.0999
     17 C17        -1.5728   -2.2625   -1.4091 C.3       1 <0>         0.0999
     18 C18        -2.3840    5.1306    0.8706 C.3       1 <0>         0.0999
     19 C19         3.3610   -2.9261    0.7368 C.3       1 <0>         0.0999
     20 C20         6.9916    0.9636    1.1659 C.3       1 <0>         0.0999
     21 C21         3.4648    5.7379    0.7409 C.3       1 <0>         0.0999
     22 C22        -5.3009   -0.4481   -1.4792 C.3       1 <0>         0.1282
     23 C23        -5.2019   -5.2621   -1.8898 C.3       1 <0>         0.1282
     24 C24         0.2781   -4.0534   -2.4063 C.3       1 <0>         0.1282
     25 C25        -1.5102    2.6195   -0.2117 C.3       1 <0>         0.1282
     26 C26         4.8307   -2.0074   -1.5545 C.3       1 <0>         0.1282
     27 C27         6.0481    2.7418   -0.8991 C.3       1 <0>         0.1282
     28 C28         2.0701    3.7915    2.1196 C.3       1 <0>         0.1282
     29 C29        -4.5238    0.9239    0.3542 C.3       1 <0>         0.3176
     30 C30        -6.1016   -3.7370   -0.1984 C.3       1 <0>         0.3176
     31 C31        -1.8809   -3.7563   -1.3374 C.3       1 <0>         0.3176
     32 C32         3.1353   -3.4643   -0.6812 C.3       1 <0>         0.3176
     33 C33        -0.9835    4.8948    0.2943 C.3       1 <0>         0.3176
     34 C34         6.6512    0.5104   -0.2590 C.3       1 <0>         0.3176
     35 C35         4.0169    4.3077    0.7623 C.3       1 <0>         0.3176
     36 C36        -6.1541    0.5830   -2.2152 C.3       1 <0>         0.1254
     37 C37        -5.7521   -6.6865   -1.8461 C.3       1 <0>         0.1254
     38 C38         1.1257   -5.2874   -2.6922 C.3       1 <0>         0.1254
     39 C39        -1.3958    1.6265   -1.3579 C.3       1 <0>         0.1254
     40 C40         6.0927   -2.0602   -2.4093 C.3       1 <0>         0.1254
     41 C41         6.3900    3.8101   -1.9333 C.3       1 <0>         0.1254
     42 C42         1.4816    2.4538    2.5633 C.3       1 <0>         0.1254
     43 O1         -5.3224   -2.5358   -0.2895 O.3       1 <0>        -0.4088
     44 O2         -3.2811   -3.8973   -1.6022 O.3       1 <0>        -0.4088
     45 O3         -3.3471    1.5091    0.9328 O.3       1 <0>        -0.4088
     46 O4          2.1035   -2.7680   -1.3881 O.3       1 <0>        -0.4088
     47 O5          5.2941    0.0685   -0.3726 O.3       1 <0>        -0.4088
     48 O6          5.4413    4.4131    0.8556 O.3       1 <0>        -0.4088
     49 O7         -0.0629    4.5972    1.3525 O.3       1 <0>        -0.4088
     50 O8         -4.1998    0.1861   -0.8235 O.3       1 <0>        -0.4191
     51 O9         -6.2424   -4.3632   -1.4755 O.3       1 <0>        -0.4191
     52 O10        -1.0780   -4.5067   -2.2536 O.3       1 <0>        -0.4191
     53 O11         4.3805   -3.3619   -1.3937 O.3       1 <0>        -0.4191
     54 O12        -1.0507    3.8801   -0.7111 O.3       1 <0>        -0.4191
     55 O13         6.8984    1.6115   -1.1507 O.3       1 <0>        -0.4191
     56 O14         3.4535    3.5597    1.8382 O.3       1 <0>        -0.4191
     57 O15        -7.4360    0.2652    0.6951 O.3       1 <0>        -0.5890
     58 O16        -3.7806   -6.3687    0.9449 O.3       1 <0>        -0.5890
     59 O17        -0.0891   -1.5807    0.3334 O.3       1 <0>        -0.5890
     60 O18        -4.3762    4.0982    1.7123 O.3       1 <0>        -0.5890
     61 O19         4.1130   -1.0321    2.0185 O.3       1 <0>        -0.5890
     62 O20         6.5503    2.6243    2.8453 O.3       1 <0>        -0.5890
     63 O21         1.7162    5.8967   -0.8917 O.3       1 <0>        -0.5890
     64 O22        -4.1861   -0.9809    1.7847 O.3       1 <0>        -0.5744
     65 O23        -5.4254   -4.0910    2.0999 O.3       1 <0>        -0.5744
     66 O24        -1.8189   -1.8231   -2.7470 O.3       1 <0>        -0.5744
     67 O25        -2.3273    6.0847    1.9262 O.3       1 <0>        -0.5744
     68 O26         2.1910   -3.0305    1.5341 O.3       1 <0>        -0.5744
     69 O27         6.8372   -0.0973    2.0976 O.3       1 <0>        -0.5744
     70 O28         3.7330    6.3673    1.9957 O.3       1 <0>        -0.5744
     71 O29        -7.1134   -0.1021   -3.0000 O.3       1 <0>        -0.5919
     72 O30        -4.8104   -7.5502   -2.4547 O.3       1 <0>        -0.5919
     73 O31         0.5791   -5.9582   -3.8124 O.3       1 <0>        -0.5919
     74 O32        -2.2375    2.0557   -2.4129 O.3       1 <0>        -0.5919
     75 O33         7.0825   -2.7882   -1.7061 O.3       1 <0>        -0.5919
     76 O34         7.7385    4.2006   -1.7493 O.3       1 <0>        -0.5919
     77 O35         1.5303    1.5614    1.4676 O.3       1 <0>        -0.5919
     78 H1         -7.0586   -1.6466   -1.0179 H         1 <0>         0.0746
     79 H2         -3.2205   -5.9013   -1.3934 H         1 <0>         0.0746
     80 H3          0.7115   -3.8441   -0.3149 H         1 <0>         0.0746
     81 H4         -3.6355    2.9829   -0.4849 H         1 <0>         0.0746
     82 H5          5.9247   -1.8055    0.3038 H         1 <0>         0.0746
     83 H6          7.2706    3.6333    0.6210 H         1 <0>         0.0746
     84 H7          1.3072    3.6977    0.0797 H         1 <0>         0.0746
     85 H8         -6.7763   -1.4560    1.5435 H         1 <0>         0.0892
     86 H9         -3.3380   -4.4045    0.8973 H         1 <0>         0.0892
     87 H10         0.2544   -1.1617   -1.6304 H         1 <0>         0.0892
     88 H11        -2.5119    3.4987    2.3077 H         1 <0>         0.0892
     89 H12         3.0161   -0.8529    0.2998 H         1 <0>         0.0892
     90 H13         5.0715    1.8147    1.7033 H         1 <0>         0.0892
     91 H14         1.4664    6.5558    1.0087 H         1 <0>         0.0892
     92 H15        -5.4315    0.5619    2.2832 H         1 <0>         0.0654
     93 H16        -6.0754   -5.6085    0.8967 H         1 <0>         0.0654
     94 H17        -2.2576   -1.7116   -0.7572 H         1 <0>         0.0654
     95 H18        -3.0272    5.5861    0.0804 H         1 <0>         0.0654
     96 H19         4.1433   -3.5460    1.2294 H         1 <0>         0.0654
     97 H20         8.0457    1.2888    1.2079 H         1 <0>         0.0654
     98 H21         4.0001    6.3183   -0.0175 H         1 <0>         0.0654
     99 H22        -4.8647   -1.1200   -2.2936 H         1 <0>         0.0972
    100 H23        -5.0300   -5.0589   -2.9777 H         1 <0>         0.0972
    101 H24         0.2828   -3.4488   -3.2904 H         1 <0>         0.0972
    102 H25        -0.8498    2.3234    0.5809 H         1 <0>         0.0972
    103 H26         4.0877   -1.5008   -2.1027 H         1 <0>         0.0972
    104 H27         5.0085    2.4404   -1.0756 H         1 <0>         0.0972
    105 H28         2.0461    4.4597    2.9757 H         1 <0>         0.0972
    106 H29        -5.2136    1.7052    0.1100 H         1 <0>         0.0680
    107 H30        -7.1163   -3.4813    0.1484 H         1 <0>         0.0680
    108 H31        -1.6780   -4.0900   -0.3115 H         1 <0>         0.0680
    109 H32         2.8503   -4.5205   -0.6557 H         1 <0>         0.0680
    110 H33        -0.6516    5.8416   -0.2107 H         1 <0>         0.0680
    111 H34         7.3210   -0.2976   -0.5530 H         1 <0>         0.0680
    112 H35         3.7620    3.8236   -0.1955 H         1 <0>         0.0680
    113 H36        -5.5252    1.1913   -2.8658 H         1 <0>         0.0430
    114 H37        -6.6675    1.2233   -1.4974 H         1 <0>         0.0430
    115 H38        -6.6938   -6.7365   -2.3915 H         1 <0>         0.0430
    116 H39        -5.9074   -6.9921   -0.8120 H         1 <0>         0.0430
    117 H40         1.1126   -5.9538   -1.8303 H         1 <0>         0.0430
    118 H41         2.1503   -4.9903   -2.9135 H         1 <0>         0.0430
    119 H42        -1.7107    0.6366   -1.0265 H         1 <0>         0.0430
    120 H43        -0.3660    1.5843   -1.7137 H         1 <0>         0.0430
    121 H44         6.4549   -1.0501   -2.5995 H         1 <0>         0.0430
    122 H45         5.8807   -2.5597   -3.3544 H         1 <0>         0.0430
    123 H46         5.7426    4.6770   -1.8008 H         1 <0>         0.0430
    124 H47         6.2653    3.4083   -2.9389 H         1 <0>         0.0430
    125 H48         0.4483    2.5936    2.8736 H         1 <0>         0.0430
    126 H49         2.0671    2.0515    3.3873 H         1 <0>         0.0430
    127 H50        -8.2147   -0.2146    0.3754 H         1 <0>         0.4068
    128 H51        -2.8642   -6.5770    0.7114 H         1 <0>         0.4068
    129 H52        -0.6545   -0.7961    0.3956 H         1 <0>         0.4068
    130 H53        -4.7981    4.3863    0.8900 H         1 <0>         0.4068
    131 H54         4.8297   -1.5981    2.3455 H         1 <0>         0.4068
    132 H55         7.4751    2.8906    2.7299 H         1 <0>         0.4068
    133 H56         2.1324    6.7348   -1.1404 H         1 <0>         0.4068
    134 H57        -4.6074   -1.5353    2.4600 H         1 <0>         0.4111
    135 H58        -6.3390   -3.8599    2.3294 H         1 <0>         0.4111
    136 H59        -1.6314   -0.8717   -2.7647 H         1 <0>         0.4111
    137 H60        -1.9260    6.8805    1.5489 H         1 <0>         0.4111
    138 H61         1.9423   -3.9666    1.5307 H         1 <0>         0.4111
    139 H62         7.4137   -0.8171    1.7964 H         1 <0>         0.4111
    140 H63         3.3820    7.2660    1.9252 H         1 <0>         0.4111
    141 H64        -7.6427    0.5733   -3.4574 H         1 <0>         0.4076
    142 H65        -5.1799   -8.4491   -2.4160 H         1 <0>         0.4076
    143 H66         1.1339   -6.7399   -3.9763 H         1 <0>         0.4076
    144 H67        -2.1473    1.4069   -3.1315 H         1 <0>         0.4076
    145 H68         7.8756   -2.8088   -2.2685 H         1 <0>         0.4076
    146 H69         7.9327    4.8799   -2.4175 H         1 <0>         0.4076
    147 H70         1.1523    0.7166    1.7679 H         1 <0>         0.4076
@<TRIPOS>BOND
     1    1    8 1
     2    1   22 1
     3    1   43 1
     4    2    9 1
     5    2   23 1
     6    2   44 1
     7    3   10 1
     8    3   24 1
     9    3   46 1
    10    4   11 1
    11    4   25 1
    12    4   45 1
    13    5   12 1
    14    5   26 1
    15    5   47 1
    16    6   13 1
    17    6   27 1
    18    6   48 1
    19    7   14 1
    20    7   28 1
    21    7   49 1
    22    8   15 1
    23    8   57 1
    24    9   16 1
    25    9   58 1
    26   10   17 1
    27   10   59 1
    28   11   18 1
    29   11   60 1
    30   12   19 1
    31   12   61 1
    32   13   20 1
    33   13   62 1
    34   14   21 1
    35   14   63 1
    36   15   29 1
    37   15   64 1
    38   16   30 1
    39   16   65 1
    40   17   31 1
    41   17   66 1
    42   18   33 1
    43   18   67 1
    44   19   32 1
    45   19   68 1
    46   20   34 1
    47   20   69 1
    48   21   35 1
    49   21   70 1
    50   22   36 1
    51   22   50 1
    52   23   37 1
    53   23   51 1
    54   24   38 1
    55   24   52 1
    56   25   39 1
    57   25   54 1
    58   26   40 1
    59   26   53 1
    60   27   41 1
    61   27   55 1
    62   28   42 1
    63   28   56 1
    64   29   45 1
    65   29   50 1
    66   30   43 1
    67   30   51 1
    68   31   44 1
    69   31   52 1
    70   32   46 1
    71   32   53 1
    72   33   49 1
    73   33   54 1
    74   34   47 1
    75   34   55 1
    76   35   48 1
    77   35   56 1
    78   36   71 1
    79   37   72 1
    80   38   73 1
    81   39   74 1
    82   40   75 1
    83   41   76 1
    84   42   77 1
    85    1   78 1
    86    2   79 1
    87    3   80 1
    88    4   81 1
    89    5   82 1
    90    6   83 1
    91    7   84 1
    92    8   85 1
    93    9   86 1
    94   10   87 1
    95   11   88 1
    96   12   89 1
    97   13   90 1
    98   14   91 1
    99   15   92 1
   100   16   93 1
   101   17   94 1
   102   18   95 1
   103   19   96 1
   104   20   97 1
   105   21   98 1
   106   22   99 1
   107   23  100 1
   108   24  101 1
   109   25  102 1
   110   26  103 1
   111   27  104 1
   112   28  105 1
   113   29  106 1
   114   30  107 1
   115   31  108 1
   116   32  109 1
   117   33  110 1
   118   34  111 1
   119   35  112 1
   120   36  113 1
   121   36  114 1
   122   37  115 1
   123   37  116 1
   124   38  117 1
   125   38  118 1
   126   39  119 1
   127   39  120 1
   128   40  121 1
   129   40  122 1
   130   41  123 1
   131   41  124 1
   132   42  125 1
   133   42  126 1
   134   57  127 1
   135   58  128 1
   136   59  129 1
   137   60  130 1
   138   61  131 1
   139   62  132 1
   140   63  133 1
   141   64  134 1
   142   65  135 1
   143   66  136 1
   144   67  137 1
   145   68  138 1
   146   69  139 1
   147   70  140 1
   148   71  141 1
   149   72  142 1
   150   73  143 1
   151   74  144 1
   152   75  145 1
   153   76  146 1
   154   77  147 1
@<TRIPOS>MOLECULE
*****
  147   154     0     0     0
SMALL
USER_CHARGES

@<TRIPOS>ATOM
      1 C1         -6.1085   -1.3572   -0.5321 C.3       1 <0>         0.1012
      2 C2         -3.8641   -5.1224   -1.1328 C.3       1 <0>         0.1020
      3 C3          0.7697   -3.2416   -1.1943 C.3       1 <0>         0.1020
      4 C4         -2.9459    2.7391    0.3171 C.3       1 <0>         0.1020
      5 C5          5.0698   -1.3311   -0.1904 C.3       1 <0>         0.1020
      6 C6          6.2344    3.2650    0.5387 C.3       1 <0>         0.1020
      7 C7          1.2988    4.4037    0.9387 C.3       1 <0>         0.1020
      8 C8         -6.3966   -0.6989    0.8274 C.3       1 <0>         0.1044
      9 C9         -4.0502   -5.0766    0.3961 C.3       1 <0>         0.1044
     10 C10        -0.1170   -1.9909   -1.0350 C.3       1 <0>         0.1044
     11 C11        -3.0094    3.8370    1.3885 C.3       1 <0>         0.1044
     12 C12         3.8192   -1.4713    0.6920 C.3       1 <0>         0.1044
     13 C13         6.1077    2.1412    1.5772 C.3       1 <0>         0.1044
     14 C14         1.9512    5.7335    0.5104 C.3       1 <0>         0.1044
     15 C15        -5.1532   -0.0058    1.3958 C.3       1 <0>         0.0999
     16 C16        -5.4699   -4.6919    0.8070 C.3       1 <0>         0.0999
     17 C17        -1.5728   -2.2625   -1.4091 C.3       1 <0>         0.0999
     18 C18        -2.3840    5.1306    0.8706 C.3       1 <0>         0.0999
     19 C19         3.3610   -2.9261    0.7368 C.3       1 <0>         0.0999
     20 C20         6.9916    0.9636    1.1659 C.3       1 <0>         0.0999
     21 C21         3.4648    5.7379    0.7409 C.3       1 <0>         0.0999
     22 C22        -5.3009   -0.4481   -1.4792 C.3       1 <0>         0.1282
     23 C23        -5.2019   -5.2621   -1.8898 C.3       1 <0>         0.1282
     24 C24         0.2781   -4.0534   -2.4063 C.3       1 <0>         0.1282
     25 C25        -1.5102    2.6195   -0.2117 C.3       1 <0>         0.1282
     26 C26         4.8307   -2.0074   -1.5545 C.3       1 <0>         0.1282
     27 C27         6.0481    2.7418   -0.8991 C.3       1 <0>         0.1282
     28 C28         2.0701    3.7915    2.1196 C.3       1 <0>         0.1282
     29 C29        -4.5238    0.9239    0.3542 C.3       1 <0>         0.3176
     30 C30        -6.1016   -3.7370   -0.1984 C.3       1 <0>         0.3176
     31 C31        -1.8809   -3.7563   -1.3374 C.3       1 <0>         0.3176
     32 C32         3.1353   -3.4643   -0.6812 C.3       1 <0>         0.3176
     33 C33        -0.9835    4.8948    0.2943 C.3       1 <0>         0.3176
     34 C34         6.6512    0.5104   -0.2590 C.3       1 <0>         0.3176
     35 C35         4.0169    4.3077    0.7623 C.3       1 <0>         0.3176
     36 C36        -6.1541    0.5830   -2.2152 C.3       1 <0>         0.1254
     37 C37        -5.7521   -6.6865   -1.8461 C.3       1 <0>         0.1254
     38 C38         1.1257   -5.2874   -2.6922 C.3       1 <0>         0.1254
     39 C39        -1.3958    1.6265   -1.3579 C.3       1 <0>         0.1254
     40 C40         6.0927   -2.0602   -2.4093 C.3       1 <0>         0.1254
     41 C41         6.3900    3.8101   -1.9333 C.3       1 <0>         0.1254
     42 C42         1.4816    2.4538    2.5633 C.3       1 <0>         0.1254
     43 O1         -5.3224   -2.5358   -0.2895 O.3       1 <0>        -0.4088
     44 O2         -3.2811   -3.8973   -1.6022 O.3       1 <0>        -0.4088
     45 O3         -3.3471    1.5091    0.9328 O.3       1 <0>        -0.4088
     46 O4          2.1035   -2.7680   -1.3881 O.3       1 <0>        -0.4088
     47 O5          5.2941    0.0685   -0.3726 O.3       1 <0>        -0.4088
     48 O6          5.4413    4.4131    0.8556 O.3       1 <0>        -0.4088
     49 O7         -0.0629    4.5972    1.3525 O.3       1 <0>        -0.4088
     50 O8         -4.1998    0.1861   -0.8235 O.3       1 <0>        -0.4191
     51 O9         -6.2424   -4.3632   -1.4755 O.3       1 <0>        -0.4191
     52 O10        -1.0780   -4.5067   -2.2536 O.3       1 <0>        -0.4191
     53 O11         4.3805   -3.3619   -1.3937 O.3       1 <0>        -0.4191
     54 O12        -1.0507    3.8801   -0.7111 O.3       1 <0>        -0.4191
     55 O13         6.8984    1.6115   -1.1507 O.3       1 <0>        -0.4191
     56 O14         3.4535    3.5597    1.8382 O.3       1 <0>        -0.4191
     57 O15        -7.4360    0.2652    0.6951 O.3       1 <0>        -0.5890
     58 O16        -3.7806   -6.3687    0.9449 O.3       1 <0>        -0.5890
     59 O17        -0.0891   -1.5807    0.3334 O.3       1 <0>        -0.5890
     60 O18        -4.3762    4.0982    1.7123 O.3       1 <0>        -0.5890
     61 O19         4.1130   -1.0321    2.0185 O.3       1 <0>        -0.5890
     62 O20         6.5503    2.6243    2.8453 O.3       1 <0>        -0.5890
     63 O21         1.7162    5.8967   -0.8917 O.3       1 <0>        -0.5890
     64 O22        -4.1861   -0.9809    1.7847 O.3       1 <0>        -0.5744
     65 O23        -5.4254   -4.0910    2.0999 O.3       1 <0>        -0.5744
     66 O24        -1.8189   -1.8231   -2.7470 O.3       1 <0>        -0.5744
     67 O25        -2.3273    6.0847    1.9262 O.3       1 <0>        -0.5744
     68 O26         2.1910   -3.0305    1.5341 O.3       1 <0>        -0.5744
     69 O27         6.8372   -0.0973    2.0976 O.3       1 <0>        -0.5744
     70 O28         3.7330    6.3673    1.9957 O.3       1 <0>        -0.5744
     71 O29        -5.3081    1.3621   -3.0415 O.3       1 <0>        -0.5919
     72 O30        -4.8104   -7.5502   -2.4547 O.3       1 <0>        -0.5919
     73 O31         0.5791   -5.9582   -3.8124 O.3       1 <0>        -0.5919
     74 O32        -0.0473    1.5877   -1.7889 O.3       1 <0>        -0.5919
     75 O33         7.0825   -2.7882   -1.7061 O.3       1 <0>        -0.5919
     76 O34         6.2081    3.2609   -3.2257 O.3       1 <0>        -0.5919
     77 O35         2.2559    1.9626    3.6396 O.3       1 <0>        -0.5919
     78 H1         -7.0586   -1.6466   -1.0179 H         1 <0>         0.0746
     79 H2         -3.2205   -5.9013   -1.3934 H         1 <0>         0.0746
     80 H3          0.7115   -3.8441   -0.3149 H         1 <0>         0.0746
     81 H4         -3.6355    2.9829   -0.4849 H         1 <0>         0.0746
     82 H5          5.9247   -1.8055    0.3038 H         1 <0>         0.0746
     83 H6          7.2706    3.6333    0.6210 H         1 <0>         0.0746
     84 H7          1.3072    3.6977    0.0797 H         1 <0>         0.0746
     85 H8         -6.7763   -1.4560    1.5435 H         1 <0>         0.0892
     86 H9         -3.3380   -4.4045    0.8973 H         1 <0>         0.0892
     87 H10         0.2544   -1.1617   -1.6304 H         1 <0>         0.0892
     88 H11        -2.5119    3.4987    2.3077 H         1 <0>         0.0892
     89 H12         3.0161   -0.8529    0.2998 H         1 <0>         0.0892
     90 H13         5.0715    1.8147    1.7033 H         1 <0>         0.0892
     91 H14         1.4664    6.5558    1.0087 H         1 <0>         0.0892
     92 H15        -5.4315    0.5619    2.2832 H         1 <0>         0.0654
     93 H16        -6.0754   -5.6085    0.8967 H         1 <0>         0.0654
     94 H17        -2.2576   -1.7116   -0.7572 H         1 <0>         0.0654
     95 H18        -3.0272    5.5861    0.0804 H         1 <0>         0.0654
     96 H19         4.1433   -3.5460    1.2294 H         1 <0>         0.0654
     97 H20         8.0457    1.2888    1.2079 H         1 <0>         0.0654
     98 H21         4.0001    6.3183   -0.0175 H         1 <0>         0.0654
     99 H22        -4.8647   -1.1200   -2.2936 H         1 <0>         0.0972
    100 H23        -5.0300   -5.0589   -2.9777 H         1 <0>         0.0972
    101 H24         0.2828   -3.4488   -3.2904 H         1 <0>         0.0972
    102 H25        -0.8498    2.3234    0.5809 H         1 <0>         0.0972
    103 H26         4.0877   -1.5008   -2.1027 H         1 <0>         0.0972
    104 H27         5.0085    2.4404   -1.0756 H         1 <0>         0.0972
    105 H28         2.0461    4.4597    2.9757 H         1 <0>         0.0972
    106 H29        -5.2136    1.7052    0.1100 H         1 <0>         0.0680
    107 H30        -7.1163   -3.4813    0.1484 H         1 <0>         0.0680
    108 H31        -1.6780   -4.0900   -0.3115 H         1 <0>         0.0680
    109 H32         2.8503   -4.5205   -0.6557 H         1 <0>         0.0680
    110 H33        -0.6516    5.8416   -0.2107 H         1 <0>         0.0680
    111 H34         7.3210   -0.2976   -0.5530 H         1 <0>         0.0680
    112 H35         3.7620    3.8236   -0.1955 H         1 <0>         0.0680
    113 H36        -6.6544    1.2336   -1.4975 H         1 <0>         0.0430
    114 H37        -6.8969    0.0792   -2.8342 H         1 <0>         0.0430
    115 H38        -6.6938   -6.7365   -2.3915 H         1 <0>         0.0430
    116 H39        -5.9074   -6.9921   -0.8120 H         1 <0>         0.0430
    117 H40         1.1126   -5.9538   -1.8303 H         1 <0>         0.0430
    118 H41         2.1503   -4.9903   -2.9135 H         1 <0>         0.0430
    119 H42        -2.0298    1.9402   -2.1877 H         1 <0>         0.0430
    120 H43        -1.6950    0.6332   -1.0223 H         1 <0>         0.0430
    121 H44         6.4549   -1.0501   -2.5995 H         1 <0>         0.0430
    122 H45         5.8807   -2.5597   -3.3544 H         1 <0>         0.0430
    123 H46         7.4280    4.1218   -1.8172 H         1 <0>         0.0430
    124 H47         5.7318    4.6704   -1.8116 H         1 <0>         0.0430
    125 H48         1.5162    1.7468    1.7371 H         1 <0>         0.0430
    126 H49         0.4535    2.5962    2.8892 H         1 <0>         0.0430
    127 H50        -8.2147   -0.2146    0.3754 H         1 <0>         0.4068
    128 H51        -2.8642   -6.5770    0.7114 H         1 <0>         0.4068
    129 H52        -0.6545   -0.7961    0.3956 H         1 <0>         0.4068
    130 H53        -4.7981    4.3863    0.8900 H         1 <0>         0.4068
    131 H54         4.8297   -1.5981    2.3455 H         1 <0>         0.4068
    132 H55         7.4751    2.8906    2.7299 H         1 <0>         0.4068
    133 H56         2.1324    6.7348   -1.1404 H         1 <0>         0.4068
    134 H57        -4.6074   -1.5353    2.4600 H         1 <0>         0.4111
    135 H58        -6.3390   -3.8599    2.3294 H         1 <0>         0.4111
    136 H59        -1.6314   -0.8717   -2.7647 H         1 <0>         0.4111
    137 H60        -1.9260    6.8805    1.5489 H         1 <0>         0.4111
    138 H61         1.9423   -3.9666    1.5307 H         1 <0>         0.4111
    139 H62         7.4137   -0.8171    1.7964 H         1 <0>         0.4111
    140 H63         3.3820    7.2660    1.9252 H         1 <0>         0.4111
    141 H64        -5.8724    2.0091   -3.4981 H         1 <0>         0.4076
    142 H65        -5.1799   -8.4491   -2.4160 H         1 <0>         0.4076
    143 H66         1.1339   -6.7399   -3.9763 H         1 <0>         0.4076
    144 H67         0.0002    0.9480   -2.5197 H         1 <0>         0.4076
    145 H68         7.8756   -2.8088   -2.2685 H         1 <0>         0.4076
    146 H69         6.4313    3.9579   -3.8660 H         1 <0>         0.4076
    147 H70         1.8674    1.1120    3.9085 H         1 <0>         0.4076
@<TRIPOS>BOND
     1    1    8 1
     2    1   22 1
     3    1   43 1
     4    2    9 1
     5    2   23 1
     6    2   44 1
     7    3   10 1
     8    3   24 1
     9    3   46 1
    10    4   11 1
    11    4   25 1
    12    4   45 1
    13    5   12 1
    14    5   26 1
    15    5   47 1
    16    6   13 1
    17    6   27 1
    18    6   48 1
    19    7   14 1
    20    7   28 1
    21    7   49 1
    22    8   15 1
    23    8   57 1
    24    9   16 1
    25    9   58 1
    26   10   17 1
    27   10   59 1
    28   11   18 1
    29   11   60 1
    30   12   19 1
    31   12   61 1
    32   13   20 1
    33   13   62 1
    34   14   21 1
    35   14   63 1
    36   15   29 1
    37   15   64 1
    38   16   30 1
    39   16   65 1
    40   17   31 1
    41   17   66 1
    42   18   33 1
    43   18   67 1
    44   19   32 1
    45   19   68 1
    46   20   34 1
    47   20   69 1
    48   21   35 1
    49   21   70 1
    50   22   36 1
    51   22   50 1
    52   23   37 1
    53   23   51 1
    54   24   38 1
    55   24   52 1
    56   25   39 1
    57   25   54 1
    58   26   40 1
    59   26   53 1
    60   27   41 1
    61   27   55 1
    62   28   42 1
    63   28   56 1
    64   29   45 1
    65   29   50 1
    66   30   43 1
    67   30   51 1
    68   31   44 1
    69   31   52 1
    70   32   46 1
    71   32   53 1
    72   33   49 1
    73   33   54 1
    74   34   47 1
    75   34   55 1
    76   35   48 1
    77   35   56 1
    78   36   71 1
    79   37   72 1
    80   38   73 1
    81   39   74 1
    82   40   75 1
    83   41   76 1
    84   42   77 1
    85    1   78 1
    86    2   79 1
    87    3   80 1
    88    4   81 1
    89    5   82 1
    90    6   83 1
    91    7   84 1
    92    8   85 1
    93    9   86 1
    94   10   87 1
    95   11   88 1
    96   12   89 1
    97   13   90 1
    98   14   91 1
    99   15   92 1
   100   16   93 1
   101   17   94 1
   102   18   95 1
   103   19   96 1
   104   20   97 1
   105   21   98 1
   106   22   99 1
   107   23  100 1
   108   24  101 1
   109   25  102 1
   110   26  103 1
   111   27  104 1
   112   28  105 1
   113   29  106 1
   114   30  107 1
   115   31  108 1
   116   32  109 1
   117   33  110 1
   118   34  111 1
   119   35  112 1
   120   36  113 1
   121   36  114 1
   122   37  115 1
   123   37  116 1
   124   38  117 1
   125   38  118 1
   126   39  119 1
   127   39  120 1
   128   40  121 1
   129   40  122 1
   130   41  123 1
   131   41  124 1
   132   42  125 1
   133   42  126 1
   134   57  127 1
   135   58  128 1
   136   59  129 1
   137   60  130 1
   138   61  131 1
   139   62  132 1
   140   63  133 1
   141   64  134 1
   142   65  135 1
   143   66  136 1
   144   67  137 1
   145   68  138 1
   146   69  139 1
   147   70  140 1
   148   71  141 1
   149   72  142 1
   150   73  143 1
   151   74  144 1
   152   75  145 1
   153   76  146 1
   154   77  147 1
@<TRIPOS>MOLECULE
*****
  147   154     0     0     0
SMALL
USER_CHARGES

@<TRIPOS>ATOM
      1 C1         -6.1085   -1.3572   -0.5321 C.3       1 <0>         0.1012
      2 C2         -3.8641   -5.1224   -1.1328 C.3       1 <0>         0.1020
      3 C3          0.7697   -3.2416   -1.1943 C.3       1 <0>         0.1020
      4 C4         -2.9459    2.7391    0.3171 C.3       1 <0>         0.1020
      5 C5          5.0698   -1.3311   -0.1904 C.3       1 <0>         0.1020
      6 C6          6.2344    3.2650    0.5387 C.3       1 <0>         0.1020
      7 C7          1.2988    4.4037    0.9387 C.3       1 <0>         0.1020
      8 C8         -6.3966   -0.6989    0.8274 C.3       1 <0>         0.1044
      9 C9         -4.0502   -5.0766    0.3961 C.3       1 <0>         0.1044
     10 C10        -0.1170   -1.9909   -1.0350 C.3       1 <0>         0.1044
     11 C11        -3.0094    3.8370    1.3885 C.3       1 <0>         0.1044
     12 C12         3.8192   -1.4713    0.6920 C.3       1 <0>         0.1044
     13 C13         6.1077    2.1412    1.5772 C.3       1 <0>         0.1044
     14 C14         1.9512    5.7335    0.5104 C.3       1 <0>         0.1044
     15 C15        -5.1532   -0.0058    1.3958 C.3       1 <0>         0.0999
     16 C16        -5.4699   -4.6919    0.8070 C.3       1 <0>         0.0999
     17 C17        -1.5728   -2.2625   -1.4091 C.3       1 <0>         0.0999
     18 C18        -2.3840    5.1306    0.8706 C.3       1 <0>         0.0999
     19 C19         3.3610   -2.9261    0.7368 C.3       1 <0>         0.0999
     20 C20         6.9916    0.9636    1.1659 C.3       1 <0>         0.0999
     21 C21         3.4648    5.7379    0.7409 C.3       1 <0>         0.0999
     22 C22        -5.3009   -0.4481   -1.4792 C.3       1 <0>         0.1282
     23 C23        -5.2019   -5.2621   -1.8898 C.3       1 <0>         0.1282
     24 C24         0.2781   -4.0534   -2.4063 C.3       1 <0>         0.1282
     25 C25        -1.5102    2.6195   -0.2117 C.3       1 <0>         0.1282
     26 C26         4.8307   -2.0074   -1.5545 C.3       1 <0>         0.1282
     27 C27         6.0481    2.7418   -0.8991 C.3       1 <0>         0.1282
     28 C28         2.0701    3.7915    2.1196 C.3       1 <0>         0.1282
     29 C29        -4.5238    0.9239    0.3542 C.3       1 <0>         0.3176
     30 C30        -6.1016   -3.7370   -0.1984 C.3       1 <0>         0.3176
     31 C31        -1.8809   -3.7563   -1.3374 C.3       1 <0>         0.3176
     32 C32         3.1353   -3.4643   -0.6812 C.3       1 <0>         0.3176
     33 C33        -0.9835    4.8948    0.2943 C.3       1 <0>         0.3176
     34 C34         6.6512    0.5104   -0.2590 C.3       1 <0>         0.3176
     35 C35         4.0169    4.3077    0.7623 C.3       1 <0>         0.3176
     36 C36        -6.1541    0.5830   -2.2152 C.3       1 <0>         0.1254
     37 C37        -5.7521   -6.6865   -1.8461 C.3       1 <0>         0.1254
     38 C38         1.1257   -5.2874   -2.6922 C.3       1 <0>         0.1254
     39 C39        -1.3958    1.6265   -1.3579 C.3       1 <0>         0.1254
     40 C40         6.0927   -2.0602   -2.4093 C.3       1 <0>         0.1254
     41 C41         6.3900    3.8101   -1.9333 C.3       1 <0>         0.1254
     42 C42         1.4816    2.4538    2.5633 C.3       1 <0>         0.1254
     43 O1         -5.3224   -2.5358   -0.2895 O.3       1 <0>        -0.4088
     44 O2         -3.2811   -3.8973   -1.6022 O.3       1 <0>        -0.4088
     45 O3         -3.3471    1.5091    0.9328 O.3       1 <0>        -0.4088
     46 O4          2.1035   -2.7680   -1.3881 O.3       1 <0>        -0.4088
     47 O5          5.2941    0.0685   -0.3726 O.3       1 <0>        -0.4088
     48 O6          5.4413    4.4131    0.8556 O.3       1 <0>        -0.4088
     49 O7         -0.0629    4.5972    1.3525 O.3       1 <0>        -0.4088
     50 O8         -4.1998    0.1861   -0.8235 O.3       1 <0>        -0.4191
     51 O9         -6.2424   -4.3632   -1.4755 O.3       1 <0>        -0.4191
     52 O10        -1.0780   -4.5067   -2.2536 O.3       1 <0>        -0.4191
     53 O11         4.3805   -3.3619   -1.3937 O.3       1 <0>        -0.4191
     54 O12        -1.0507    3.8801   -0.7111 O.3       1 <0>        -0.4191
     55 O13         6.8984    1.6115   -1.1507 O.3       1 <0>        -0.4191
     56 O14         3.4535    3.5597    1.8382 O.3       1 <0>        -0.4191
     57 O15        -7.4360    0.2652    0.6951 O.3       1 <0>        -0.5890
     58 O16        -3.7806   -6.3687    0.9449 O.3       1 <0>        -0.5890
     59 O17        -0.0891   -1.5807    0.3334 O.3       1 <0>        -0.5890
     60 O18        -4.3762    4.0982    1.7123 O.3       1 <0>        -0.5890
     61 O19         4.1130   -1.0321    2.0185 O.3       1 <0>        -0.5890
     62 O20         6.5503    2.6243    2.8453 O.3       1 <0>        -0.5890
     63 O21         1.7162    5.8967   -0.8917 O.3       1 <0>        -0.5890
     64 O22        -4.1861   -0.9809    1.7847 O.3       1 <0>        -0.5744
     65 O23        -5.4254   -4.0910    2.0999 O.3       1 <0>        -0.5744
     66 O24        -1.8189   -1.8231   -2.7470 O.3       1 <0>        -0.5744
     67 O25        -2.3273    6.0847    1.9262 O.3       1 <0>        -0.5744
     68 O26         2.1910   -3.0305    1.5341 O.3       1 <0>        -0.5744
     69 O27         6.8372   -0.0973    2.0976 O.3       1 <0>        -0.5744
     70 O28         3.7330    6.3673    1.9957 O.3       1 <0>        -0.5744
     71 O29        -7.1134   -0.1021   -3.0000 O.3       1 <0>        -0.5919
     72 O30        -6.6886   -6.8384   -2.8964 O.3       1 <0>        -0.5919
     73 O31         1.0973   -6.1259   -1.5522 O.3       1 <0>        -0.5919
     74 O32        -2.2375    2.0557   -2.4129 O.3       1 <0>        -0.5919
     75 O33         7.0825   -2.7882   -1.7061 O.3       1 <0>        -0.5919
     76 O34         6.2081    3.2609   -3.2257 O.3       1 <0>        -0.5919
     77 O35         2.2559    1.9626    3.6396 O.3       1 <0>        -0.5919
     78 H1         -7.0586   -1.6466   -1.0179 H         1 <0>         0.0746
     79 H2         -3.2205   -5.9013   -1.3934 H         1 <0>         0.0746
     80 H3          0.7115   -3.8441   -0.3149 H         1 <0>         0.0746
     81 H4         -3.6355    2.9829   -0.4849 H         1 <0>         0.0746
     82 H5          5.9247   -1.8055    0.3038 H         1 <0>         0.0746
     83 H6          7.2706    3.6333    0.6210 H         1 <0>         0.0746
     84 H7          1.3072    3.6977    0.0797 H         1 <0>         0.0746
     85 H8         -6.7763   -1.4560    1.5435 H         1 <0>         0.0892
     86 H9         -3.3380   -4.4045    0.8973 H         1 <0>         0.0892
     87 H10         0.2544   -1.1617   -1.6304 H         1 <0>         0.0892
     88 H11        -2.5119    3.4987    2.3077 H         1 <0>         0.0892
     89 H12         3.0161   -0.8529    0.2998 H         1 <0>         0.0892
     90 H13         5.0715    1.8147    1.7033 H         1 <0>         0.0892
     91 H14         1.4664    6.5558    1.0087 H         1 <0>         0.0892
     92 H15        -5.4315    0.5619    2.2832 H         1 <0>         0.0654
     93 H16        -6.0754   -5.6085    0.8967 H         1 <0>         0.0654
     94 H17        -2.2576   -1.7116   -0.7572 H         1 <0>         0.0654
     95 H18        -3.0272    5.5861    0.0804 H         1 <0>         0.0654
     96 H19         4.1433   -3.5460    1.2294 H         1 <0>         0.0654
     97 H20         8.0457    1.2888    1.2079 H         1 <0>         0.0654
     98 H21         4.0001    6.3183   -0.0175 H         1 <0>         0.0654
     99 H22        -4.8647   -1.1200   -2.2936 H         1 <0>         0.0972
    100 H23        -5.0300   -5.0589   -2.9777 H         1 <0>         0.0972
    101 H24         0.2828   -3.4488   -3.2904 H         1 <0>         0.0972
    102 H25        -0.8498    2.3234    0.5809 H         1 <0>         0.0972
    103 H26         4.0877   -1.5008   -2.1027 H         1 <0>         0.0972
    104 H27         5.0085    2.4404   -1.0756 H         1 <0>         0.0972
    105 H28         2.0461    4.4597    2.9757 H         1 <0>         0.0972
    106 H29        -5.2136    1.7052    0.1100 H         1 <0>         0.0680
    107 H30        -7.1163   -3.4813    0.1484 H         1 <0>         0.0680
    108 H31        -1.6780   -4.0900   -0.3115 H         1 <0>         0.0680
    109 H32         2.8503   -4.5205   -0.6557 H         1 <0>         0.0680
    110 H33        -0.6516    5.8416   -0.2107 H         1 <0>         0.0680
    111 H34         7.3210   -0.2976   -0.5530 H         1 <0>         0.0680
    112 H35         3.7620    3.8236   -0.1955 H         1 <0>         0.0680
    113 H36        -5.5252    1.1913   -2.8658 H         1 <0>         0.0430
    114 H37        -6.6675    1.2233   -1.4974 H         1 <0>         0.0430
    115 H38        -6.2472   -6.8630   -0.8919 H         1 <0>         0.0430
    116 H39        -4.9407   -7.4012   -1.9789 H         1 <0>         0.0430
    117 H40         2.1539   -4.9913   -2.8973 H         1 <0>         0.0430
    118 H41         0.7193   -5.8264   -3.5474 H         1 <0>         0.0430
    119 H42        -1.7107    0.6366   -1.0265 H         1 <0>         0.0430
    120 H43        -0.3660    1.5843   -1.7137 H         1 <0>         0.0430
    121 H44         6.4549   -1.0501   -2.5995 H         1 <0>         0.0430
    122 H45         5.8807   -2.5597   -3.3544 H         1 <0>         0.0430
    123 H46         7.4280    4.1218   -1.8172 H         1 <0>         0.0430
    124 H47         5.7318    4.6704   -1.8116 H         1 <0>         0.0430
    125 H48         1.5162    1.7468    1.7371 H         1 <0>         0.0430
    126 H49         0.4535    2.5962    2.8892 H         1 <0>         0.0430
    127 H50        -8.2147   -0.2146    0.3754 H         1 <0>         0.4068
    128 H51        -2.8642   -6.5770    0.7114 H         1 <0>         0.4068
    129 H52        -0.6545   -0.7961    0.3956 H         1 <0>         0.4068
    130 H53        -4.7981    4.3863    0.8900 H         1 <0>         0.4068
    131 H54         4.8297   -1.5981    2.3455 H         1 <0>         0.4068
    132 H55         7.4751    2.8906    2.7299 H         1 <0>         0.4068
    133 H56         2.1324    6.7348   -1.1404 H         1 <0>         0.4068
    134 H57        -4.6074   -1.5353    2.4600 H         1 <0>         0.4111
    135 H58        -6.3390   -3.8599    2.3294 H         1 <0>         0.4111
    136 H59        -1.6314   -0.8717   -2.7647 H         1 <0>         0.4111
    137 H60        -1.9260    6.8805    1.5489 H         1 <0>         0.4111
    138 H61         1.9423   -3.9666    1.5307 H         1 <0>         0.4111
    139 H62         7.4137   -0.8171    1.7964 H         1 <0>         0.4111
    140 H63         3.3820    7.2660    1.9252 H         1 <0>         0.4111
    141 H64        -7.6427    0.5733   -3.4574 H         1 <0>         0.4076
    142 H65        -7.0252   -7.7498   -2.8499 H         1 <0>         0.4076
    143 H66         1.6429   -6.9047   -1.7563 H         1 <0>         0.4076
    144 H67        -2.1473    1.4069   -3.1315 H         1 <0>         0.4076
    145 H68         7.8756   -2.8088   -2.2685 H         1 <0>         0.4076
    146 H69         6.4313    3.9579   -3.8660 H         1 <0>         0.4076
    147 H70         1.8674    1.1120    3.9085 H         1 <0>         0.4076
@<TRIPOS>BOND
     1    1    8 1
     2    1   22 1
     3    1   43 1
     4    2    9 1
     5    2   23 1
     6    2   44 1
     7    3   10 1
     8    3   24 1
     9    3   46 1
    10    4   11 1
    11    4   25 1
    12    4   45 1
    13    5   12 1
    14    5   26 1
    15    5   47 1
    16    6   13 1
    17    6   27 1
    18    6   48 1
    19    7   14 1
    20    7   28 1
    21    7   49 1
    22    8   15 1
    23    8   57 1
    24    9   16 1
    25    9   58 1
    26   10   17 1
    27   10   59 1
    28   11   18 1
    29   11   60 1
    30   12   19 1
    31   12   61 1
    32   13   20 1
    33   13   62 1
    34   14   21 1
    35   14   63 1
    36   15   29 1
    37   15   64 1
    38   16   30 1
    39   16   65 1
    40   17   31 1
    41   17   66 1
    42   18   33 1
    43   18   67 1
    44   19   32 1
    45   19   68 1
    46   20   34 1
    47   20   69 1
    48   21   35 1
    49   21   70 1
    50   22   36 1
    51   22   50 1
    52   23   37 1
    53   23   51 1
    54   24   38 1
    55   24   52 1
    56   25   39 1
    57   25   54 1
    58   26   40 1
    59   26   53 1
    60   27   41 1
    61   27   55 1
    62   28   42 1
    63   28   56 1
    64   29   45 1
    65   29   50 1
    66   30   43 1
    67   30   51 1
    68   31   44 1
    69   31   52 1
    70   32   46 1
    71   32   53 1
    72   33   49 1
    73   33   54 1
    74   34   47 1
    75   34   55 1
    76   35   48 1
    77   35   56 1
    78   36   71 1
    79   37   72 1
    80   38   73 1
    81   39   74 1
    82   40   75 1
    83   41   76 1
    84   42   77 1
    85    1   78 1
    86    2   79 1
    87    3   80 1
    88    4   81 1
    89    5   82 1
    90    6   83 1
    91    7   84 1
    92    8   85 1
    93    9   86 1
    94   10   87 1
    95   11   88 1
    96   12   89 1
    97   13   90 1
    98   14   91 1
    99   15   92 1
   100   16   93 1
   101   17   94 1
   102   18   95 1
   103   19   96 1
   104   20   97 1
   105   21   98 1
   106   22   99 1
   107   23  100 1
   108   24  101 1
   109   25  102 1
   110   26  103 1
   111   27  104 1
   112   28  105 1
   113   29  106 1
   114   30  107 1
   115   31  108 1
   116   32  109 1
   117   33  110 1
   118   34  111 1
   119   35  112 1
   120   36  113 1
   121   36  114 1
   122   37  115 1
   123   37  116 1
   124   38  117 1
   125   38  118 1
   126   39  119 1
   127   39  120 1
   128   40  121 1
   129   40  122 1
   130   41  123 1
   131   41  124 1
   132   42  125 1
   133   42  126 1
   134   57  127 1
   135   58  128 1
   136   59  129 1
   137   60  130 1
   138   61  131 1
   139   62  132 1
   140   63  133 1
   141   64  134 1
   142   65  135 1
   143   66  136 1
   144   67  137 1
   145   68  138 1
   146   69  139 1
   147   70  140 1
   148   71  141 1
   149   72  142 1
   150   73  143 1
   151   74  144 1
   152   75  145 1
   153   76  146 1
   154   77  147 1
@<TRIPOS>MOLECULE
*****
  147   154     0     0     0
SMALL
USER_CHARGES

@<TRIPOS>ATOM
      1 C1         -6.1085   -1.3572   -0.5321 C.3       1 <0>         0.1012
      2 C2         -3.8641   -5.1224   -1.1328 C.3       1 <0>         0.1020
      3 C3          0.7697   -3.2416   -1.1943 C.3       1 <0>         0.1020
      4 C4         -2.9459    2.7391    0.3171 C.3       1 <0>         0.1020
      5 C5          5.0698   -1.3311   -0.1904 C.3       1 <0>         0.1020
      6 C6          6.2344    3.2650    0.5387 C.3       1 <0>         0.1020
      7 C7          1.2988    4.4037    0.9387 C.3       1 <0>         0.1020
      8 C8         -6.3966   -0.6989    0.8274 C.3       1 <0>         0.1044
      9 C9         -4.0502   -5.0766    0.3961 C.3       1 <0>         0.1044
     10 C10        -0.1170   -1.9909   -1.0350 C.3       1 <0>         0.1044
     11 C11        -3.0094    3.8370    1.3885 C.3       1 <0>         0.1044
     12 C12         3.8192   -1.4713    0.6920 C.3       1 <0>         0.1044
     13 C13         6.1077    2.1412    1.5772 C.3       1 <0>         0.1044
     14 C14         1.9512    5.7335    0.5104 C.3       1 <0>         0.1044
     15 C15        -5.1532   -0.0058    1.3958 C.3       1 <0>         0.0999
     16 C16        -5.4699   -4.6919    0.8070 C.3       1 <0>         0.0999
     17 C17        -1.5728   -2.2625   -1.4091 C.3       1 <0>         0.0999
     18 C18        -2.3840    5.1306    0.8706 C.3       1 <0>         0.0999
     19 C19         3.3610   -2.9261    0.7368 C.3       1 <0>         0.0999
     20 C20         6.9916    0.9636    1.1659 C.3       1 <0>         0.0999
     21 C21         3.4648    5.7379    0.7409 C.3       1 <0>         0.0999
     22 C22        -5.3009   -0.4481   -1.4792 C.3       1 <0>         0.1282
     23 C23        -5.2019   -5.2621   -1.8898 C.3       1 <0>         0.1282
     24 C24         0.2781   -4.0534   -2.4063 C.3       1 <0>         0.1282
     25 C25        -1.5102    2.6195   -0.2117 C.3       1 <0>         0.1282
     26 C26         4.8307   -2.0074   -1.5545 C.3       1 <0>         0.1282
     27 C27         6.0481    2.7418   -0.8991 C.3       1 <0>         0.1282
     28 C28         2.0701    3.7915    2.1196 C.3       1 <0>         0.1282
     29 C29        -4.5238    0.9239    0.3542 C.3       1 <0>         0.3176
     30 C30        -6.1016   -3.7370   -0.1984 C.3       1 <0>         0.3176
     31 C31        -1.8809   -3.7563   -1.3374 C.3       1 <0>         0.3176
     32 C32         3.1353   -3.4643   -0.6812 C.3       1 <0>         0.3176
     33 C33        -0.9835    4.8948    0.2943 C.3       1 <0>         0.3176
     34 C34         6.6512    0.5104   -0.2590 C.3       1 <0>         0.3176
     35 C35         4.0169    4.3077    0.7623 C.3       1 <0>         0.3176
     36 C36        -6.1541    0.5830   -2.2152 C.3       1 <0>         0.1254
     37 C37        -5.7521   -6.6865   -1.8461 C.3       1 <0>         0.1254
     38 C38         1.1257   -5.2874   -2.6922 C.3       1 <0>         0.1254
     39 C39        -1.3958    1.6265   -1.3579 C.3       1 <0>         0.1254
     40 C40         6.0927   -2.0602   -2.4093 C.3       1 <0>         0.1254
     41 C41         6.3900    3.8101   -1.9333 C.3       1 <0>         0.1254
     42 C42         1.4816    2.4538    2.5633 C.3       1 <0>         0.1254
     43 O1         -5.3224   -2.5358   -0.2895 O.3       1 <0>        -0.4088
     44 O2         -3.2811   -3.8973   -1.6022 O.3       1 <0>        -0.4088
     45 O3         -3.3471    1.5091    0.9328 O.3       1 <0>        -0.4088
     46 O4          2.1035   -2.7680   -1.3881 O.3       1 <0>        -0.4088
     47 O5          5.2941    0.0685   -0.3726 O.3       1 <0>        -0.4088
     48 O6          5.4413    4.4131    0.8556 O.3       1 <0>        -0.4088
     49 O7         -0.0629    4.5972    1.3525 O.3       1 <0>        -0.4088
     50 O8         -4.1998    0.1861   -0.8235 O.3       1 <0>        -0.4191
     51 O9         -6.2424   -4.3632   -1.4755 O.3       1 <0>        -0.4191
     52 O10        -1.0780   -4.5067   -2.2536 O.3       1 <0>        -0.4191
     53 O11         4.3805   -3.3619   -1.3937 O.3       1 <0>        -0.4191
     54 O12        -1.0507    3.8801   -0.7111 O.3       1 <0>        -0.4191
     55 O13         6.8984    1.6115   -1.1507 O.3       1 <0>        -0.4191
     56 O14         3.4535    3.5597    1.8382 O.3       1 <0>        -0.4191
     57 O15        -7.4360    0.2652    0.6951 O.3       1 <0>        -0.5890
     58 O16        -3.7806   -6.3687    0.9449 O.3       1 <0>        -0.5890
     59 O17        -0.0891   -1.5807    0.3334 O.3       1 <0>        -0.5890
     60 O18        -4.3762    4.0982    1.7123 O.3       1 <0>        -0.5890
     61 O19         4.1130   -1.0321    2.0185 O.3       1 <0>        -0.5890
     62 O20         6.5503    2.6243    2.8453 O.3       1 <0>        -0.5890
     63 O21         1.7162    5.8967   -0.8917 O.3       1 <0>        -0.5890
     64 O22        -4.1861   -0.9809    1.7847 O.3       1 <0>        -0.5744
     65 O23        -5.4254   -4.0910    2.0999 O.3       1 <0>        -0.5744
     66 O24        -1.8189   -1.8231   -2.7470 O.3       1 <0>        -0.5744
     67 O25        -2.3273    6.0847    1.9262 O.3       1 <0>        -0.5744
     68 O26         2.1910   -3.0305    1.5341 O.3       1 <0>        -0.5744
     69 O27         6.8372   -0.0973    2.0976 O.3       1 <0>        -0.5744
     70 O28         3.7330    6.3673    1.9957 O.3       1 <0>        -0.5744
     71 O29        -5.3081    1.3621   -3.0415 O.3       1 <0>        -0.5919
     72 O30        -6.6886   -6.8384   -2.8964 O.3       1 <0>        -0.5919
     73 O31         0.5791   -5.9582   -3.8124 O.3       1 <0>        -0.5919
     74 O32        -2.2375    2.0557   -2.4129 O.3       1 <0>        -0.5919
     75 O33         5.7819   -2.7039   -3.6313 O.3       1 <0>        -0.5919
     76 O34         7.7385    4.2006   -1.7493 O.3       1 <0>        -0.5919
     77 O35         2.2559    1.9626    3.6396 O.3       1 <0>        -0.5919
     78 H1         -7.0586   -1.6466   -1.0179 H         1 <0>         0.0746
     79 H2         -3.2205   -5.9013   -1.3934 H         1 <0>         0.0746
     80 H3          0.7115   -3.8441   -0.3149 H         1 <0>         0.0746
     81 H4         -3.6355    2.9829   -0.4849 H         1 <0>         0.0746
     82 H5          5.9247   -1.8055    0.3038 H         1 <0>         0.0746
     83 H6          7.2706    3.6333    0.6210 H         1 <0>         0.0746
     84 H7          1.3072    3.6977    0.0797 H         1 <0>         0.0746
     85 H8         -6.7763   -1.4560    1.5435 H         1 <0>         0.0892
     86 H9         -3.3380   -4.4045    0.8973 H         1 <0>         0.0892
     87 H10         0.2544   -1.1617   -1.6304 H         1 <0>         0.0892
     88 H11        -2.5119    3.4987    2.3077 H         1 <0>         0.0892
     89 H12         3.0161   -0.8529    0.2998 H         1 <0>         0.0892
     90 H13         5.0715    1.8147    1.7033 H         1 <0>         0.0892
     91 H14         1.4664    6.5558    1.0087 H         1 <0>         0.0892
     92 H15        -5.4315    0.5619    2.2832 H         1 <0>         0.0654
     93 H16        -6.0754   -5.6085    0.8967 H         1 <0>         0.0654
     94 H17        -2.2576   -1.7116   -0.7572 H         1 <0>         0.0654
     95 H18        -3.0272    5.5861    0.0804 H         1 <0>         0.0654
     96 H19         4.1433   -3.5460    1.2294 H         1 <0>         0.0654
     97 H20         8.0457    1.2888    1.2079 H         1 <0>         0.0654
     98 H21         4.0001    6.3183   -0.0175 H         1 <0>         0.0654
     99 H22        -4.8647   -1.1200   -2.2936 H         1 <0>         0.0972
    100 H23        -5.0300   -5.0589   -2.9777 H         1 <0>         0.0972
    101 H24         0.2828   -3.4488   -3.2904 H         1 <0>         0.0972
    102 H25        -0.8498    2.3234    0.5809 H         1 <0>         0.0972
    103 H26         4.0877   -1.5008   -2.1027 H         1 <0>         0.0972
    104 H27         5.0085    2.4404   -1.0756 H         1 <0>         0.0972
    105 H28         2.0461    4.4597    2.9757 H         1 <0>         0.0972
    106 H29        -5.2136    1.7052    0.1100 H         1 <0>         0.0680
    107 H30        -7.1163   -3.4813    0.1484 H         1 <0>         0.0680
    108 H31        -1.6780   -4.0900   -0.3115 H         1 <0>         0.0680
    109 H32         2.8503   -4.5205   -0.6557 H         1 <0>         0.0680
    110 H33        -0.6516    5.8416   -0.2107 H         1 <0>         0.0680
    111 H34         7.3210   -0.2976   -0.5530 H         1 <0>         0.0680
    112 H35         3.7620    3.8236   -0.1955 H         1 <0>         0.0680
    113 H36        -6.6544    1.2336   -1.4975 H         1 <0>         0.0430
    114 H37        -6.8969    0.0792   -2.8342 H         1 <0>         0.0430
    115 H38        -6.2472   -6.8630   -0.8919 H         1 <0>         0.0430
    116 H39        -4.9407   -7.4012   -1.9789 H         1 <0>         0.0430
    117 H40         1.1126   -5.9538   -1.8303 H         1 <0>         0.0430
    118 H41         2.1503   -4.9903   -2.9135 H         1 <0>         0.0430
    119 H42        -1.7107    0.6366   -1.0265 H         1 <0>         0.0430
    120 H43        -0.3660    1.5843   -1.7137 H         1 <0>         0.0430
    121 H44         6.8685   -2.6240   -1.8917 H         1 <0>         0.0430
    122 H45         6.4458   -1.0496   -2.6134 H         1 <0>         0.0430
    123 H46         5.7426    4.6770   -1.8008 H         1 <0>         0.0430
    124 H47         6.2653    3.4083   -2.9389 H         1 <0>         0.0430
    125 H48         1.5162    1.7468    1.7371 H         1 <0>         0.0430
    126 H49         0.4535    2.5962    2.8892 H         1 <0>         0.0430
    127 H50        -8.2147   -0.2146    0.3754 H         1 <0>         0.4068
    128 H51        -2.8642   -6.5770    0.7114 H         1 <0>         0.4068
    129 H52        -0.6545   -0.7961    0.3956 H         1 <0>         0.4068
    130 H53        -4.7981    4.3863    0.8900 H         1 <0>         0.4068
    131 H54         4.8297   -1.5981    2.3455 H         1 <0>         0.4068
    132 H55         7.4751    2.8906    2.7299 H         1 <0>         0.4068
    133 H56         2.1324    6.7348   -1.1404 H         1 <0>         0.4068
    134 H57        -4.6074   -1.5353    2.4600 H         1 <0>         0.4111
    135 H58        -6.3390   -3.8599    2.3294 H         1 <0>         0.4111
    136 H59        -1.6314   -0.8717   -2.7647 H         1 <0>         0.4111
    137 H60        -1.9260    6.8805    1.5489 H         1 <0>         0.4111
    138 H61         1.9423   -3.9666    1.5307 H         1 <0>         0.4111
    139 H62         7.4137   -0.8171    1.7964 H         1 <0>         0.4111
    140 H63         3.3820    7.2660    1.9252 H         1 <0>         0.4111
    141 H64        -5.8724    2.0091   -3.4981 H         1 <0>         0.4076
    142 H65        -7.0252   -7.7498   -2.8499 H         1 <0>         0.4076
    143 H66         1.1339   -6.7399   -3.9763 H         1 <0>         0.4076
    144 H67        -2.1473    1.4069   -3.1315 H         1 <0>         0.4076
    145 H68         6.5989   -2.7260   -4.1584 H         1 <0>         0.4076
    146 H69         7.9327    4.8799   -2.4175 H         1 <0>         0.4076
    147 H70         1.8674    1.1120    3.9085 H         1 <0>         0.4076
@<TRIPOS>BOND
     1    1    8 1
     2    1   22 1
     3    1   43 1
     4    2    9 1
     5    2   23 1
     6    2   44 1
     7    3   10 1
     8    3   24 1
     9    3   46 1
    10    4   11 1
    11    4   25 1
    12    4   45 1
    13    5   12 1
    14    5   26 1
    15    5   47 1
    16    6   13 1
    17    6   27 1
    18    6   48 1
    19    7   14 1
    20    7   28 1
    21    7   49 1
    22    8   15 1
    23    8   57 1
    24    9   16 1
    25    9   58 1
    26   10   17 1
    27   10   59 1
    28   11   18 1
    29   11   60 1
    30   12   19 1
    31   12   61 1
    32   13   20 1
    33   13   62 1
    34   14   21 1
    35   14   63 1
    36   15   29 1
    37   15   64 1
    38   16   30 1
    39   16   65 1
    40   17   31 1
    41   17   66 1
    42   18   33 1
    43   18   67 1
    44   19   32 1
    45   19   68 1
    46   20   34 1
    47   20   69 1
    48   21   35 1
    49   21   70 1
    50   22   36 1
    51   22   50 1
    52   23   37 1
    53   23   51 1
    54   24   38 1
    55   24   52 1
    56   25   39 1
    57   25   54 1
    58   26   40 1
    59   26   53 1
    60   27   41 1
    61   27   55 1
    62   28   42 1
    63   28   56 1
    64   29   45 1
    65   29   50 1
    66   30   43 1
    67   30   51 1
    68   31   44 1
    69   31   52 1
    70   32   46 1
    71   32   53 1
    72   33   49 1
    73   33   54 1
    74   34   47 1
    75   34   55 1
    76   35   48 1
    77   35   56 1
    78   36   71 1
    79   37   72 1
    80   38   73 1
    81   39   74 1
    82   40   75 1
    83   41   76 1
    84   42   77 1
    85    1   78 1
    86    2   79 1
    87    3   80 1
    88    4   81 1
    89    5   82 1
    90    6   83 1
    91    7   84 1
    92    8   85 1
    93    9   86 1
    94   10   87 1
    95   11   88 1
    96   12   89 1
    97   13   90 1
    98   14   91 1
    99   15   92 1
   100   16   93 1
   101   17   94 1
   102   18   95 1
   103   19   96 1
   104   20   97 1
   105   21   98 1
   106   22   99 1
   107   23  100 1
   108   24  101 1
   109   25  102 1
   110   26  103 1
   111   27  104 1
   112   28  105 1
   113   29  106 1
   114   30  107 1
   115   31  108 1
   116   32  109 1
   117   33  110 1
   118   34  111 1
   119   35  112 1
   120   36  113 1
   121   36  114 1
   122   37  115 1
   123   37  116 1
   124   38  117 1
   125   38  118 1
   126   39  119 1
   127   39  120 1
   128   40  121 1
   129   40  122 1
   130   41  123 1
   131   41  124 1
   132   42  125 1
   133   42  126 1
   134   57  127 1
   135   58  128 1
   136   59  129 1
   137   60  130 1
   138   61  131 1
   139   62  132 1
   140   63  133 1
   141   64  134 1
   142   65  135 1
   143   66  136 1
   144   67  137 1
   145   68  138 1
   146   69  139 1
   147   70  140 1
   148   71  141 1
   149   72  142 1
   150   73  143 1
   151   74  144 1
   152   75  145 1
   153   76  146 1
   154   77  147 1
@<TRIPOS>MOLECULE
*****
  147   154     0     0     0
SMALL
USER_CHARGES

@<TRIPOS>ATOM
      1 C1         -6.1085   -1.3572   -0.5321 C.3       1 <0>         0.1012
      2 C2         -3.8641   -5.1224   -1.1328 C.3       1 <0>         0.1020
      3 C3          0.7697   -3.2416   -1.1943 C.3       1 <0>         0.1020
      4 C4         -2.9459    2.7391    0.3171 C.3       1 <0>         0.1020
      5 C5          5.0698   -1.3311   -0.1904 C.3       1 <0>         0.1020
      6 C6          6.2344    3.2650    0.5387 C.3       1 <0>         0.1020
      7 C7          1.2988    4.4037    0.9387 C.3       1 <0>         0.1020
      8 C8         -6.3966   -0.6989    0.8274 C.3       1 <0>         0.1044
      9 C9         -4.0502   -5.0766    0.3961 C.3       1 <0>         0.1044
     10 C10        -0.1170   -1.9909   -1.0350 C.3       1 <0>         0.1044
     11 C11        -3.0094    3.8370    1.3885 C.3       1 <0>         0.1044
     12 C12         3.8192   -1.4713    0.6920 C.3       1 <0>         0.1044
     13 C13         6.1077    2.1412    1.5772 C.3       1 <0>         0.1044
     14 C14         1.9512    5.7335    0.5104 C.3       1 <0>         0.1044
     15 C15        -5.1532   -0.0058    1.3958 C.3       1 <0>         0.0999
     16 C16        -5.4699   -4.6919    0.8070 C.3       1 <0>         0.0999
     17 C17        -1.5728   -2.2625   -1.4091 C.3       1 <0>         0.0999
     18 C18        -2.3840    5.1306    0.8706 C.3       1 <0>         0.0999
     19 C19         3.3610   -2.9261    0.7368 C.3       1 <0>         0.0999
     20 C20         6.9916    0.9636    1.1659 C.3       1 <0>         0.0999
     21 C21         3.4648    5.7379    0.7409 C.3       1 <0>         0.0999
     22 C22        -5.3009   -0.4481   -1.4792 C.3       1 <0>         0.1282
     23 C23        -5.2019   -5.2621   -1.8898 C.3       1 <0>         0.1282
     24 C24         0.2781   -4.0534   -2.4063 C.3       1 <0>         0.1282
     25 C25        -1.5102    2.6195   -0.2117 C.3       1 <0>         0.1282
     26 C26         4.8307   -2.0074   -1.5545 C.3       1 <0>         0.1282
     27 C27         6.0481    2.7418   -0.8991 C.3       1 <0>         0.1282
     28 C28         2.0701    3.7915    2.1196 C.3       1 <0>         0.1282
     29 C29        -4.5238    0.9239    0.3542 C.3       1 <0>         0.3176
     30 C30        -6.1016   -3.7370   -0.1984 C.3       1 <0>         0.3176
     31 C31        -1.8809   -3.7563   -1.3374 C.3       1 <0>         0.3176
     32 C32         3.1353   -3.4643   -0.6812 C.3       1 <0>         0.3176
     33 C33        -0.9835    4.8948    0.2943 C.3       1 <0>         0.3176
     34 C34         6.6512    0.5104   -0.2590 C.3       1 <0>         0.3176
     35 C35         4.0169    4.3077    0.7623 C.3       1 <0>         0.3176
     36 C36        -6.1541    0.5830   -2.2152 C.3       1 <0>         0.1254
     37 C37        -5.7521   -6.6865   -1.8461 C.3       1 <0>         0.1254
     38 C38         1.1257   -5.2874   -2.6922 C.3       1 <0>         0.1254
     39 C39        -1.3958    1.6265   -1.3579 C.3       1 <0>         0.1254
     40 C40         6.0927   -2.0602   -2.4093 C.3       1 <0>         0.1254
     41 C41         6.3900    3.8101   -1.9333 C.3       1 <0>         0.1254
     42 C42         1.4816    2.4538    2.5633 C.3       1 <0>         0.1254
     43 O1         -5.3224   -2.5358   -0.2895 O.3       1 <0>        -0.4088
     44 O2         -3.2811   -3.8973   -1.6022 O.3       1 <0>        -0.4088
     45 O3         -3.3471    1.5091    0.9328 O.3       1 <0>        -0.4088
     46 O4          2.1035   -2.7680   -1.3881 O.3       1 <0>        -0.4088
     47 O5          5.2941    0.0685   -0.3726 O.3       1 <0>        -0.4088
     48 O6          5.4413    4.4131    0.8556 O.3       1 <0>        -0.4088
     49 O7         -0.0629    4.5972    1.3525 O.3       1 <0>        -0.4088
     50 O8         -4.1998    0.1861   -0.8235 O.3       1 <0>        -0.4191
     51 O9         -6.2424   -4.3632   -1.4755 O.3       1 <0>        -0.4191
     52 O10        -1.0780   -4.5067   -2.2536 O.3       1 <0>        -0.4191
     53 O11         4.3805   -3.3619   -1.3937 O.3       1 <0>        -0.4191
     54 O12        -1.0507    3.8801   -0.7111 O.3       1 <0>        -0.4191
     55 O13         6.8984    1.6115   -1.1507 O.3       1 <0>        -0.4191
     56 O14         3.4535    3.5597    1.8382 O.3       1 <0>        -0.4191
     57 O15        -7.4360    0.2652    0.6951 O.3       1 <0>        -0.5890
     58 O16        -3.7806   -6.3687    0.9449 O.3       1 <0>        -0.5890
     59 O17        -0.0891   -1.5807    0.3334 O.3       1 <0>        -0.5890
     60 O18        -4.3762    4.0982    1.7123 O.3       1 <0>        -0.5890
     61 O19         4.1130   -1.0321    2.0185 O.3       1 <0>        -0.5890
     62 O20         6.5503    2.6243    2.8453 O.3       1 <0>        -0.5890
     63 O21         1.7162    5.8967   -0.8917 O.3       1 <0>        -0.5890
     64 O22        -4.1861   -0.9809    1.7847 O.3       1 <0>        -0.5744
     65 O23        -5.4254   -4.0910    2.0999 O.3       1 <0>        -0.5744
     66 O24        -1.8189   -1.8231   -2.7470 O.3       1 <0>        -0.5744
     67 O25        -2.3273    6.0847    1.9262 O.3       1 <0>        -0.5744
     68 O26         2.1910   -3.0305    1.5341 O.3       1 <0>        -0.5744
     69 O27         6.8372   -0.0973    2.0976 O.3       1 <0>        -0.5744
     70 O28         3.7330    6.3673    1.9957 O.3       1 <0>        -0.5744
     71 O29        -7.1134   -0.1021   -3.0000 O.3       1 <0>        -0.5919
     72 O30        -4.8104   -7.5502   -2.4547 O.3       1 <0>        -0.5919
     73 O31         1.0973   -6.1259   -1.5522 O.3       1 <0>        -0.5919
     74 O32        -0.0473    1.5877   -1.7889 O.3       1 <0>        -0.5919
     75 O33         5.7819   -2.7039   -3.6313 O.3       1 <0>        -0.5919
     76 O34         7.7385    4.2006   -1.7493 O.3       1 <0>        -0.5919
     77 O35         1.9253    2.1875    3.8792 O.3       1 <0>        -0.5919
     78 H1         -7.0586   -1.6466   -1.0179 H         1 <0>         0.0746
     79 H2         -3.2205   -5.9013   -1.3934 H         1 <0>         0.0746
     80 H3          0.7115   -3.8441   -0.3149 H         1 <0>         0.0746
     81 H4         -3.6355    2.9829   -0.4849 H         1 <0>         0.0746
     82 H5          5.9247   -1.8055    0.3038 H         1 <0>         0.0746
     83 H6          7.2706    3.6333    0.6210 H         1 <0>         0.0746
     84 H7          1.3072    3.6977    0.0797 H         1 <0>         0.0746
     85 H8         -6.7763   -1.4560    1.5435 H         1 <0>         0.0892
     86 H9         -3.3380   -4.4045    0.8973 H         1 <0>         0.0892
     87 H10         0.2544   -1.1617   -1.6304 H         1 <0>         0.0892
     88 H11        -2.5119    3.4987    2.3077 H         1 <0>         0.0892
     89 H12         3.0161   -0.8529    0.2998 H         1 <0>         0.0892
     90 H13         5.0715    1.8147    1.7033 H         1 <0>         0.0892
     91 H14         1.4664    6.5558    1.0087 H         1 <0>         0.0892
     92 H15        -5.4315    0.5619    2.2832 H         1 <0>         0.0654
     93 H16        -6.0754   -5.6085    0.8967 H         1 <0>         0.0654
     94 H17        -2.2576   -1.7116   -0.7572 H         1 <0>         0.0654
     95 H18        -3.0272    5.5861    0.0804 H         1 <0>         0.0654
     96 H19         4.1433   -3.5460    1.2294 H         1 <0>         0.0654
     97 H20         8.0457    1.2888    1.2079 H         1 <0>         0.0654
     98 H21         4.0001    6.3183   -0.0175 H         1 <0>         0.0654
     99 H22        -4.8647   -1.1200   -2.2936 H         1 <0>         0.0972
    100 H23        -5.0300   -5.0589   -2.9777 H         1 <0>         0.0972
    101 H24         0.2828   -3.4488   -3.2904 H         1 <0>         0.0972
    102 H25        -0.8498    2.3234    0.5809 H         1 <0>         0.0972
    103 H26         4.0877   -1.5008   -2.1027 H         1 <0>         0.0972
    104 H27         5.0085    2.4404   -1.0756 H         1 <0>         0.0972
    105 H28         2.0461    4.4597    2.9757 H         1 <0>         0.0972
    106 H29        -5.2136    1.7052    0.1100 H         1 <0>         0.0680
    107 H30        -7.1163   -3.4813    0.1484 H         1 <0>         0.0680
    108 H31        -1.6780   -4.0900   -0.3115 H         1 <0>         0.0680
    109 H32         2.8503   -4.5205   -0.6557 H         1 <0>         0.0680
    110 H33        -0.6516    5.8416   -0.2107 H         1 <0>         0.0680
    111 H34         7.3210   -0.2976   -0.5530 H         1 <0>         0.0680
    112 H35         3.7620    3.8236   -0.1955 H         1 <0>         0.0680
    113 H36        -5.5252    1.1913   -2.8658 H         1 <0>         0.0430
    114 H37        -6.6675    1.2233   -1.4974 H         1 <0>         0.0430
    115 H38        -6.6938   -6.7365   -2.3915 H         1 <0>         0.0430
    116 H39        -5.9074   -6.9921   -0.8120 H         1 <0>         0.0430
    117 H40         2.1539   -4.9913   -2.8973 H         1 <0>         0.0430
    118 H41         0.7193   -5.8264   -3.5474 H         1 <0>         0.0430
    119 H42        -2.0298    1.9402   -2.1877 H         1 <0>         0.0430
    120 H43        -1.6950    0.6332   -1.0223 H         1 <0>         0.0430
    121 H44         6.8685   -2.6240   -1.8917 H         1 <0>         0.0430
    122 H45         6.4458   -1.0496   -2.6134 H         1 <0>         0.0430
    123 H46         5.7426    4.6770   -1.8008 H         1 <0>         0.0430
    124 H47         6.2653    3.4083   -2.9389 H         1 <0>         0.0430
    125 H48         1.8234    1.6647    1.8969 H         1 <0>         0.0430
    126 H49         0.3952    2.5091    2.5492 H         1 <0>         0.0430
    127 H50        -8.2147   -0.2146    0.3754 H         1 <0>         0.4068
    128 H51        -2.8642   -6.5770    0.7114 H         1 <0>         0.4068
    129 H52        -0.6545   -0.7961    0.3956 H         1 <0>         0.4068
    130 H53        -4.7981    4.3863    0.8900 H         1 <0>         0.4068
    131 H54         4.8297   -1.5981    2.3455 H         1 <0>         0.4068
    132 H55         7.4751    2.8906    2.7299 H         1 <0>         0.4068
    133 H56         2.1324    6.7348   -1.1404 H         1 <0>         0.4068
    134 H57        -4.6074   -1.5353    2.4600 H         1 <0>         0.4111
    135 H58        -6.3390   -3.8599    2.3294 H         1 <0>         0.4111
    136 H59        -1.6314   -0.8717   -2.7647 H         1 <0>         0.4111
    137 H60        -1.9260    6.8805    1.5489 H         1 <0>         0.4111
    138 H61         1.9423   -3.9666    1.5307 H         1 <0>         0.4111
    139 H62         7.4137   -0.8171    1.7964 H         1 <0>         0.4111
    140 H63         3.3820    7.2660    1.9252 H         1 <0>         0.4111
    141 H64        -7.6427    0.5733   -3.4574 H         1 <0>         0.4076
    142 H65        -5.1799   -8.4491   -2.4160 H         1 <0>         0.4076
    143 H66         1.6429   -6.9047   -1.7563 H         1 <0>         0.4076
    144 H67         0.0002    0.9480   -2.5197 H         1 <0>         0.4076
    145 H68         6.5989   -2.7260   -4.1584 H         1 <0>         0.4076
    146 H69         7.9327    4.8799   -2.4175 H         1 <0>         0.4076
    147 H70         1.5415    1.3337    4.1447 H         1 <0>         0.4076
@<TRIPOS>BOND
     1    1    8 1
     2    1   22 1
     3    1   43 1
     4    2    9 1
     5    2   23 1
     6    2   44 1
     7    3   10 1
     8    3   24 1
     9    3   46 1
    10    4   11 1
    11    4   25 1
    12    4   45 1
    13    5   12 1
    14    5   26 1
    15    5   47 1
    16    6   13 1
    17    6   27 1
    18    6   48 1
    19    7   14 1
    20    7   28 1
    21    7   49 1
    22    8   15 1
    23    8   57 1
    24    9   16 1
    25    9   58 1
    26   10   17 1
    27   10   59 1
    28   11   18 1
    29   11   60 1
    30   12   19 1
    31   12   61 1
    32   13   20 1
    33   13   62 1
    34   14   21 1
    35   14   63 1
    36   15   29 1
    37   15   64 1
    38   16   30 1
    39   16   65 1
    40   17   31 1
    41   17   66 1
    42   18   33 1
    43   18   67 1
    44   19   32 1
    45   19   68 1
    46   20   34 1
    47   20   69 1
    48   21   35 1
    49   21   70 1
    50   22   36 1
    51   22   50 1
    52   23   37 1
    53   23   51 1
    54   24   38 1
    55   24   52 1
    56   25   39 1
    57   25   54 1
    58   26   40 1
    59   26   53 1
    60   27   41 1
    61   27   55 1
    62   28   42 1
    63   28   56 1
    64   29   45 1
    65   29   50 1
    66   30   43 1
    67   30   51 1
    68   31   44 1
    69   31   52 1
    70   32   46 1
    71   32   53 1
    72   33   49 1
    73   33   54 1
    74   34   47 1
    75   34   55 1
    76   35   48 1
    77   35   56 1
    78   36   71 1
    79   37   72 1
    80   38   73 1
    81   39   74 1
    82   40   75 1
    83   41   76 1
    84   42   77 1
    85    1   78 1
    86    2   79 1
    87    3   80 1
    88    4   81 1
    89    5   82 1
    90    6   83 1
    91    7   84 1
    92    8   85 1
    93    9   86 1
    94   10   87 1
    95   11   88 1
    96   12   89 1
    97   13   90 1
    98   14   91 1
    99   15   92 1
   100   16   93 1
   101   17   94 1
   102   18   95 1
   103   19   96 1
   104   20   97 1
   105   21   98 1
   106   22   99 1
   107   23  100 1
   108   24  101 1
   109   25  102 1
   110   26  103 1
   111   27  104 1
   112   28  105 1
   113   29  106 1
   114   30  107 1
   115   31  108 1
   116   32  109 1
   117   33  110 1
   118   34  111 1
   119   35  112 1
   120   36  113 1
   121   36  114 1
   122   37  115 1
   123   37  116 1
   124   38  117 1
   125   38  118 1
   126   39  119 1
   127   39  120 1
   128   40  121 1
   129   40  122 1
   130   41  123 1
   131   41  124 1
   132   42  125 1
   133   42  126 1
   134   57  127 1
   135   58  128 1
   136   59  129 1
   137   60  130 1
   138   61  131 1
   139   62  132 1
   140   63  133 1
   141   64  134 1
   142   65  135 1
   143   66  136 1
   144   67  137 1
   145   68  138 1
   146   69  139 1
   147   70  140 1
   148   71  141 1
   149   72  142 1
   150   73  143 1
   151   74  144 1
   152   75  145 1
   153   76  146 1
   154   77  147 1
